/*---------------------------------------------------------------------------*\
| =========                 |                                                 |
| \\      /  F ield         | OpenFOAM: The Open Source CFD Toolbox           |
|  \\    /   O peration     | Version:  dev                                   |
|   \\  /    A nd           | Web:      www.OpenFOAM.org                      |
|    \\/     M anipulation  |                                                 |
\*---------------------------------------------------------------------------*/
Build  : dev-940e28f63681
Exec   : fireFoam -parallel
Date   : Jul 01 2019
Time   : 22:05:31
Host   : "jianhong-ThinkPad-T460p"
PID    : 7890
I/O    : uncollated
Case   : /home/jianhong/OpenFOAM/jianhong-dev/run/firefoamcases/ofFireFoamCase/LES/smallPoolFire3D
nProcs : 4
Slaves : 
3
(
"jianhong-ThinkPad-T460p.7891"
"jianhong-ThinkPad-T460p.7892"
"jianhong-ThinkPad-T460p.7893"
)

Pstream initialized with:
    floatTransfer      : 0
    nProcsSimpleSum    : 0
    commsType          : nonBlocking
    polling iterations : 0
sigFpe : Enabling floating point exception trapping (FOAM_SIGFPE).
fileModificationChecking : Monitoring run-time modified files using timeStampMaster (fileModificationSkew 10)
allowSystemOperations : Allowing user-supplied system call operations

// * * * * * * * * * * * * * * * * * * * * * * * * * * * * * * * * * * * * * //
FireFOAM Build Version:  0a3476f19d2c050f09290eea57dedf2dabe16244
FireFOAM Build Time Stamp:  Sat 18 May 11:23:48 AEST 2019
****************************************************
Create time

Create mesh for time = 0


PIMPLE: Operating solver in PISO mode

Creating combustion model

Selecting combustion model infinitelyFastChemistry<psiThermoCombustion,gasHThermoPhysics>
Selecting thermodynamics package 
{
    type            hePsiThermo;
    mixture         singleStepReactingMixture;
    transport       sutherland;
    thermo          janaf;
    energy          sensibleEnthalpy;
    equationOfState perfectGas;
    specie          specie;
}

Selecting chemistryReader foamChemistryReader
    elements not defined in "/home/jianhong/OpenFOAM/jianhong-dev/run/firefoamcases/ofFireFoamCase/LES/smallPoolFire3D/constant/reactions"
Fuel heat of combustion :5.00312e+07
stoichiometric air-fuel ratio :17.0854
stoichiometric oxygen-fuel ratio :3.98918
Maximum products mass concentrations:
    H2O: 0.124183
    CO2: 0.151685
    N2: 0.724132
Combustion mode: explicit
Reading thermophysical properties

Creating component thermo properties:
    multi-component carrier - 5 species
    no liquid components
    no solid components
Creating field rho


Reading field U

Reading/calculating face flux field phi

No MRF models present

Creating turbulence model

Selecting turbulence model type LES
Selecting LES turbulence model kEqn
Selecting LES delta type cubeRootVol
kEqnCoeffs
{
    ck              0.07;
    Ce              1.048;
    Ck              0.094;
}


Reading g

Reading hRef
Calculating field g.h


Reading pRef
GAMG:  Solving for ph_rgh, Initial residual = 1, Final residual = 0.0617511, No Iterations 2
Hydrostatic pressure variation of internalField (gMax-gMin): 0.000568387
GAMG:  Solving for ph_rgh, Initial residual = 0.00705062, Final residual = 0.00013865, No Iterations 3
Hydrostatic pressure variation of internalField (gMax-gMin): 0.000571298
GAMG:  Solving for ph_rgh, Initial residual = 0.000123669, Final residual = 7.20293e-06, No Iterations 3
Hydrostatic pressure variation of internalField (gMax-gMin): 0.000571086
GAMG:  Solving for ph_rgh, Initial residual = 7.167e-06, Final residual = 8.1361e-07, No Iterations 2
Hydrostatic pressure variation of internalField (gMax-gMin): 0.000571075
GAMG:  Solving for ph_rgh, Initial residual = 8.13067e-07, Final residual = 8.13067e-07, No Iterations 0
Hydrostatic pressure variation of internalField (gMax-gMin): 0.000571075
Creating field dpdt

Creating field kinetic energy K

stoichiometric mixture fraction is = 0.0552931

Constructing reacting cloud
Constructing particle injection models
Selecting injection model none

Constructing surface film model
Selecting surfaceFilmModel none
    Selecting region model functions
    none
Creating pyrolysis model
Selecting pyrolysisModel none
Selecting radiationModel fvDOM
Selecting absorptionEmissionModel greyMeanAbsorptionEmission
Selecting scatterModel none
Selecting sootModel none
fvDOM : Allocated 16 rays with average orientation:
	I0 : omega : 	0.785398
	I1 : omega : 	0.785398
	I2 : omega : 	0.785398
	I3 : omega : 	0.785398
	I4 : omega : 	0.785398
	I5 : omega : 	0.785398
	I6 : omega : 	0.785398
	I7 : omega : 	0.785398
	I8 : omega : 	0.785398
	I9 : omega : 	0.785398
	I10 : omega : 	0.785398
	I11 : omega : 	0.785398
	I12 : omega : 	0.785398
	I13 : omega : 	0.785398
	I14 : omega : 	0.785398
	I15 : omega : 	0.785398

No finite volume options present

Courant Number mean: 1.2772e-07 max: 0.000191579

Starting time loop

Courant Number mean: 1.26455e-07 max: 0.000189682
deltaT = 0.00140845
Time = 0.00140845

diagonal:  Solving for rho, Initial residual = 0, Final residual = 0, No Iterations 0
PIMPLE: iteration 1
DILUPBiCGStab:  Solving for Ux, Initial residual = 1, Final residual = 2.83315e-09, No Iterations 1
DILUPBiCGStab:  Solving for Uy, Initial residual = 1, Final residual = 3.52524e-09, No Iterations 1
DILUPBiCGStab:  Solving for Uz, Initial residual = 1, Final residual = 1.01807e-10, No Iterations 1
DILUPBiCGStab:  Solving for O2, Initial residual = 0.999999, Final residual = 5.42083e-05, No Iterations 1
DILUPBiCGStab:  Solving for H2O, Initial residual = 0, Final residual = 0, No Iterations 0
DILUPBiCGStab:  Solving for CH4, Initial residual = 1, Final residual = 5.42084e-05, No Iterations 1
DILUPBiCGStab:  Solving for CO2, Initial residual = 0, Final residual = 0, No Iterations 0
      O2	min/ave/max  =	     0.23279	     0.23301	     0.23301
     H2O	min/ave/max  =	           0	           0	           0
     CH4	min/ave/max  =	           0	  6.1723e-07	   0.0009257
     CO2	min/ave/max  =	           0	           0	           0
      N2	min/ave/max  =	     0.76628	     0.76699	     0.76699
Radiation solver iter: 0
GAMG:  Solving for ILambda_0_0, Initial residual = 1, Final residual = 5.0678e-15, No Iterations 1
GAMG:  Solving for ILambda_1_0, Initial residual = 1, Final residual = 4.8376e-15, No Iterations 1
GAMG:  Solving for ILambda_2_0, Initial residual = 1, Final residual = 5.3638e-15, No Iterations 1
GAMG:  Solving for ILambda_3_0, Initial residual = 1, Final residual = 5.2147e-15, No Iterations 1
GAMG:  Solving for ILambda_4_0, Initial residual = 1, Final residual = 5.2128e-15, No Iterations 1
GAMG:  Solving for ILambda_5_0, Initial residual = 1, Final residual = 5.4165e-15, No Iterations 1
GAMG:  Solving for ILambda_6_0, Initial residual = 1, Final residual = 5.2023e-15, No Iterations 1
GAMG:  Solving for ILambda_7_0, Initial residual = 1, Final residual = 5.3793e-15, No Iterations 1
GAMG:  Solving for ILambda_8_0, Initial residual = 1, Final residual = 5.0181e-15, No Iterations 1
GAMG:  Solving for ILambda_9_0, Initial residual = 1, Final residual = 5.2232e-15, No Iterations 1
GAMG:  Solving for ILambda_10_0, Initial residual = 1, Final residual = 5.1239e-15, No Iterations 1
GAMG:  Solving for ILambda_11_0, Initial residual = 1, Final residual = 5.056e-15, No Iterations 1
GAMG:  Solving for ILambda_12_0, Initial residual = 1, Final residual = 4.8447e-15, No Iterations 1
GAMG:  Solving for ILambda_13_0, Initial residual = 1, Final residual = 4.5929e-15, No Iterations 1
GAMG:  Solving for ILambda_14_0, Initial residual = 1, Final residual = 5.043e-15, No Iterations 1
GAMG:  Solving for ILambda_15_0, Initial residual = 1, Final residual = 5.1238e-15, No Iterations 1
DILUPBiCGStab:  Solving for h, Initial residual = 1, Final residual = 2.6014e-09, No Iterations 1
min/max(T) = 300, 300
GAMG:  Solving for p_rgh, Initial residual = 0.91633, Final residual = 0.029969, No Iterations 3
diagonal:  Solving for rho, Initial residual = 0, Final residual = 0, No Iterations 0
time step continuity errors : sum local = 5.3599e-08, global = 1.3918e-08, cumulative = 1.3918e-08
GAMG:  Solving for p_rgh, Initial residual = 0.0018426, Final residual = 3.5489e-07, No Iterations 7
diagonal:  Solving for rho, Initial residual = 0, Final residual = 0, No Iterations 0
time step continuity errors : sum local = 1.2361e-11, global = 1.288e-12, cumulative = 1.3919e-08
DILUPBiCGStab:  Solving for k, Initial residual = 1, Final residual = 1.6635e-09, No Iterations 1
ExecutionTime = 4.2 s  ClockTime = 4 s

Courant Number mean: 3.015e-05 max: 0.0017589
deltaT = 0.0019718
Time = 0.00338028

diagonal:  Solving for rho, Initial residual = 0, Final residual = 0, No Iterations 0
PIMPLE: iteration 1
DILUPBiCGStab:  Solving for Ux, Initial residual = 0.4116, Final residual = 2.7973e-09, No Iterations 1
DILUPBiCGStab:  Solving for Uy, Initial residual = 0.38133, Final residual = 2.7886e-09, No Iterations 1
DILUPBiCGStab:  Solving for Uz, Initial residual = 0.4116, Final residual = 2.2317e-10, No Iterations 1
DILUPBiCGStab:  Solving for O2, Initial residual = 0.5412, Final residual = 4.1565e-05, No Iterations 1
DILUPBiCGStab:  Solving for H2O, Initial residual = 1, Final residual = 7.6815e-05, No Iterations 1
DILUPBiCGStab:  Solving for CH4, Initial residual = 0.21511, Final residual = 1.6512e-05, No Iterations 1
DILUPBiCGStab:  Solving for CO2, Initial residual = 1, Final residual = 7.6815e-05, No Iterations 1
      O2	min/ave/max  =	     0.23178	     0.23301	     0.23301
     H2O	min/ave/max  =	           0	   2.771e-07	  0.00041509
     CH4	min/ave/max  =	           0	  1.2942e-06	   0.0019388
     CO2	min/ave/max  =	           0	  3.3847e-07	  0.00050701
      N2	min/ave/max  =	     0.76536	     0.76699	     0.76699
DILUPBiCGStab:  Solving for h, Initial residual = 0.99915, Final residual = 1.0589e-08, No Iterations 1
min/max(T) = 300, 309.13
GAMG:  Solving for p_rgh, Initial residual = 0.28923, Final residual = 0.015162, No Iterations 3
diagonal:  Solving for rho, Initial residual = 0, Final residual = 0, No Iterations 0
time step continuity errors : sum local = 1.4293e-06, global = 8.1884e-07, cumulative = 8.3276e-07
GAMG:  Solving for p_rgh, Initial residual = 0.00096416, Final residual = 3.9198e-07, No Iterations 7
diagonal:  Solving for rho, Initial residual = 0, Final residual = 0, No Iterations 0
time step continuity errors : sum local = 5.724e-10, global = 2.6203e-10, cumulative = 8.3303e-07
DILUPBiCGStab:  Solving for k, Initial residual = 0.99977, Final residual = 3.8439e-09, No Iterations 1
ExecutionTime = 6.23 s  ClockTime = 6 s

Courant Number mean: 0.00094065 max: 0.040718
deltaT = 0.0027606
Time = 0.00614085

diagonal:  Solving for rho, Initial residual = 0, Final residual = 0, No Iterations 0
PIMPLE: iteration 1
DILUPBiCGStab:  Solving for Ux, Initial residual = 0.40259, Final residual = 4.8567e-09, No Iterations 1
DILUPBiCGStab:  Solving for Uy, Initial residual = 0.4006, Final residual = 6.0612e-09, No Iterations 1
DILUPBiCGStab:  Solving for Uz, Initial residual = 0.40259, Final residual = 2.3271e-09, No Iterations 1
DILUPBiCGStab:  Solving for O2, Initial residual = 0.27868, Final residual = 0.00012845, No Iterations 1
DILUPBiCGStab:  Solving for H2O, Initial residual = 0.33539, Final residual = 0.00015527, No Iterations 1
DILUPBiCGStab:  Solving for CH4, Initial residual = 0.15398, Final residual = 6.9485e-05, No Iterations 1
DILUPBiCGStab:  Solving for CO2, Initial residual = 0.33539, Final residual = 0.00015527, No Iterations 1
      O2	min/ave/max  =	      0.2299	     0.23301	     0.23301
     H2O	min/ave/max  =	           0	   8.674e-07	   0.0012453
     CH4	min/ave/max  =	           0	   2.286e-06	   0.0032839
     CO2	min/ave/max  =	           0	  1.0595e-06	    0.001521
      N2	min/ave/max  =	     0.76405	     0.76699	     0.76699
DILUPBiCGStab:  Solving for h, Initial residual = 0.3477, Final residual = 4.3033e-08, No Iterations 1
min/max(T) = 300, 327.3
GAMG:  Solving for p_rgh, Initial residual = 0.013229, Final residual = 0.00062406, No Iterations 3
diagonal:  Solving for rho, Initial residual = 0, Final residual = 0, No Iterations 0
time step continuity errors : sum local = 1.849e-06, global = -1.0633e-06, cumulative = -2.3027e-07
GAMG:  Solving for p_rgh, Initial residual = 0.0015284, Final residual = 4.7605e-07, No Iterations 7
diagonal:  Solving for rho, Initial residual = 0, Final residual = 0, No Iterations 0
time step continuity errors : sum local = 7.7863e-10, global = -4.0518e-10, cumulative = -2.3067e-07
DILUPBiCGStab:  Solving for k, Initial residual = 0.9163, Final residual = 9.5235e-09, No Iterations 1
ExecutionTime = 8.25 s  ClockTime = 8 s

Courant Number mean: 0.0021007 max: 0.079355
deltaT = 0.0037544
Time = 0.00989521

diagonal:  Solving for rho, Initial residual = 0, Final residual = 0, No Iterations 0
PIMPLE: iteration 1
DILUPBiCGStab:  Solving for Ux, Initial residual = 0.20569, Final residual = 8.0443e-09, No Iterations 1
DILUPBiCGStab:  Solving for Uy, Initial residual = 0.19218, Final residual = 1.592e-08, No Iterations 1
DILUPBiCGStab:  Solving for Uz, Initial residual = 0.20568, Final residual = 5.6352e-09, No Iterations 1
DILUPBiCGStab:  Solving for O2, Initial residual = 0.20145, Final residual = 0.00026687, No Iterations 1
DILUPBiCGStab:  Solving for H2O, Initial residual = 0.2224, Final residual = 0.00029467, No Iterations 1
DILUPBiCGStab:  Solving for CH4, Initial residual = 0.12967, Final residual = 0.00017161, No Iterations 1
DILUPBiCGStab:  Solving for CO2, Initial residual = 0.2224, Final residual = 0.00029467, No Iterations 1
      O2	min/ave/max  =	     0.22694	     0.23301	     0.23301
     H2O	min/ave/max  =	 1.8054e-309	  1.9412e-06	   0.0025922
     CH4	min/ave/max  =	 6.0567e-309	  3.7609e-06	   0.0051309
     CO2	min/ave/max  =	 2.2052e-309	  2.3711e-06	   0.0031663
      N2	min/ave/max  =	     0.76217	     0.76699	     0.76699
DILUPBiCGStab:  Solving for h, Initial residual = 0.22848, Final residual = 1.887e-07, No Iterations 1
min/max(T) = 300, 356.48
GAMG:  Solving for p_rgh, Initial residual = 0.017895, Final residual = 0.0017206, No Iterations 2
diagonal:  Solving for rho, Initial residual = 0, Final residual = 0, No Iterations 0
time step continuity errors : sum local = 4.9575e-06, global = -3.2743e-06, cumulative = -3.5049e-06
GAMG:  Solving for p_rgh, Initial residual = 0.005287, Final residual = 7.4613e-07, No Iterations 8
diagonal:  Solving for rho, Initial residual = 0, Final residual = 0, No Iterations 0
time step continuity errors : sum local = 8.2398e-10, global = -3.9933e-10, cumulative = -3.5053e-06
DILUPBiCGStab:  Solving for k, Initial residual = 0.78976, Final residual = 3.7935e-08, No Iterations 1
ExecutionTime = 10.25 s  ClockTime = 10 s

Courant Number mean: 0.0032577 max: 0.12331
deltaT = 0.0050058
Time = 0.014901

diagonal:  Solving for rho, Initial residual = 0, Final residual = 0, No Iterations 0
PIMPLE: iteration 1
DILUPBiCGStab:  Solving for Ux, Initial residual = 0.075394, Final residual = 1.6407e-08, No Iterations 1
DILUPBiCGStab:  Solving for Uy, Initial residual = 0.084039, Final residual = 6.7884e-08, No Iterations 1
DILUPBiCGStab:  Solving for Uz, Initial residual = 0.075372, Final residual = 1.4431e-08, No Iterations 1
DILUPBiCGStab:  Solving for O2, Initial residual = 0.16508, Final residual = 0.00047119, No Iterations 1
DILUPBiCGStab:  Solving for H2O, Initial residual = 0.17566, Final residual = 0.00049833, No Iterations 1
DILUPBiCGStab:  Solving for CH4, Initial residual = 0.11746, Final residual = 0.00034895, No Iterations 1
DILUPBiCGStab:  Solving for CO2, Initial residual = 0.17566, Final residual = 0.00049833, No Iterations 1
      O2	min/ave/max  =	     0.22256	       0.233	     0.23301
     H2O	min/ave/max  =	 5.7152e-289	  3.7617e-06	   0.0045984
     CH4	min/ave/max  =	 1.0127e-288	  5.9958e-06	   0.0077492
     CO2	min/ave/max  =	 6.9809e-289	  4.5948e-06	   0.0056168
      N2	min/ave/max  =	     0.75948	     0.76698	     0.76699
DILUPBiCGStab:  Solving for h, Initial residual = 0.17963, Final residual = 7.1376e-07, No Iterations 1
min/max(T) = 300, 399.32
GAMG:  Solving for p_rgh, Initial residual = 0.048415, Final residual = 0.0045021, No Iterations 1
diagonal:  Solving for rho, Initial residual = 0, Final residual = 0, No Iterations 0
time step continuity errors : sum local = 7.3796e-06, global = -2.977e-06, cumulative = -6.4823e-06
GAMG:  Solving for p_rgh, Initial residual = 0.0065239, Final residual = 8.0606e-07, No Iterations 8
diagonal:  Solving for rho, Initial residual = 0, Final residual = 0, No Iterations 0
time step continuity errors : sum local = 1.324e-09, global = -7.3124e-10, cumulative = -6.483e-06
DILUPBiCGStab:  Solving for k, Initial residual = 0.67722, Final residual = 1.1901e-07, No Iterations 1
ExecutionTime = 12.25 s  ClockTime = 12 s

Courant Number mean: 0.0048039 max: 0.17316
deltaT = 0.0065461
Time = 0.0214471

diagonal:  Solving for rho, Initial residual = 0, Final residual = 0, No Iterations 0
PIMPLE: iteration 1
DILUPBiCGStab:  Solving for Ux, Initial residual = 0.062685, Final residual = 8.549e-08, No Iterations 1
DILUPBiCGStab:  Solving for Uy, Initial residual = 0.084014, Final residual = 3.5093e-07, No Iterations 1
DILUPBiCGStab:  Solving for Uz, Initial residual = 0.062675, Final residual = 8.6528e-08, No Iterations 1
DILUPBiCGStab:  Solving for O2, Initial residual = 0.14136, Final residual = 0.00070668, No Iterations 1
DILUPBiCGStab:  Solving for H2O, Initial residual = 0.14764, Final residual = 0.00072937, No Iterations 1
DILUPBiCGStab:  Solving for CH4, Initial residual = 0.10786, Final residual = 0.00058713, No Iterations 1
DILUPBiCGStab:  Solving for CO2, Initial residual = 0.14764, Final residual = 0.00072937, No Iterations 1
      O2	min/ave/max  =	     0.21627	       0.233	     0.23301
     H2O	min/ave/max  =	 1.0409e-272	  6.7445e-06	   0.0074776
     CH4	min/ave/max  =	 1.1743e-272	  9.4171e-06	     0.01154
     CO2	min/ave/max  =	 1.2714e-272	  8.2382e-06	   0.0091336
      N2	min/ave/max  =	     0.75559	     0.76698	     0.76699
DILUPBiCGStab:  Solving for h, Initial residual = 0.15013, Final residual = 6.9948e-09, No Iterations 2
min/max(T) = 300, 459.37
GAMG:  Solving for p_rgh, Initial residual = 0.078586, Final residual = 0.0067488, No Iterations 1
diagonal:  Solving for rho, Initial residual = 0, Final residual = 0, No Iterations 0
time step continuity errors : sum local = 1.6389e-05, global = -3.5441e-06, cumulative = -1.0027e-05
GAMG:  Solving for p_rgh, Initial residual = 0.011059, Final residual = 9.204e-07, No Iterations 8
diagonal:  Solving for rho, Initial residual = 0, Final residual = 0, No Iterations 0
time step continuity errors : sum local = 2.2767e-09, global = -1.2005e-09, cumulative = -1.0028e-05
DILUPBiCGStab:  Solving for k, Initial residual = 0.58968, Final residual = 3.0689e-07, No Iterations 1
ExecutionTime = 14.27 s  ClockTime = 14 s

Courant Number mean: 0.0067958 max: 0.22746
deltaT = 0.0087281
Time = 0.0301752

diagonal:  Solving for rho, Initial residual = 0, Final residual = 0, No Iterations 0
PIMPLE: iteration 1
DILUPBiCGStab:  Solving for Ux, Initial residual = 0.057586, Final residual = 4.6823e-07, No Iterations 1
DILUPBiCGStab:  Solving for Uy, Initial residual = 0.10112, Final residual = 1.007e-08, No Iterations 2
DILUPBiCGStab:  Solving for Uz, Initial residual = 0.057577, Final residual = 4.7636e-07, No Iterations 1
DILUPBiCGStab:  Solving for O2, Initial residual = 0.12614, Final residual = 0.0010867, No Iterations 1
DILUPBiCGStab:  Solving for H2O, Initial residual = 0.12972, Final residual = 0.0010941, No Iterations 1
DILUPBiCGStab:  Solving for CH4, Initial residual = 0.10446, Final residual = 0.001023, No Iterations 1
DILUPBiCGStab:  Solving for CO2, Initial residual = 0.12972, Final residual = 0.0010941, No Iterations 1
      O2	min/ave/max  =	     0.20734	     0.23298	     0.23301
     H2O	min/ave/max  =	 5.3126e-257	  1.1578e-05	    0.011501
     CH4	min/ave/max  =	 4.1686e-257	  1.5017e-05	    0.017396
     CO2	min/ave/max  =	 6.4891e-257	  1.4142e-05	    0.014048
      N2	min/ave/max  =	     0.74973	     0.76697	     0.76699
DILUPBiCGStab:  Solving for h, Initial residual = 0.13162, Final residual = 2.4554e-08, No Iterations 2
min/max(T) = 300, 539.89
GAMG:  Solving for p_rgh, Initial residual = 0.10949, Final residual = 0.0037253, No Iterations 2
diagonal:  Solving for rho, Initial residual = 0, Final residual = 0, No Iterations 0
time step continuity errors : sum local = 1.4897e-05, global = -8.13e-06, cumulative = -1.8158e-05
GAMG:  Solving for p_rgh, Initial residual = 0.018135, Final residual = 9.4455e-07, No Iterations 8
diagonal:  Solving for rho, Initial residual = 0, Final residual = 0, No Iterations 0
time step continuity errors : sum local = 3.6308e-09, global = -1.8736e-09, cumulative = -1.816e-05
DILUPBiCGStab:  Solving for k, Initial residual = 0.53071, Final residual = 5.8396e-07, No Iterations 1
ExecutionTime = 16.28 s  ClockTime = 16 s

Courant Number mean: 0.0093616 max: 0.28015
deltaT = 0.011637
Time = 0.0418127

diagonal:  Solving for rho, Initial residual = 0, Final residual = 0, No Iterations 0
PIMPLE: iteration 1
DILUPBiCGStab:  Solving for Ux, Initial residual = 0.043099, Final residual = 1.3968e-08, No Iterations 2
DILUPBiCGStab:  Solving for Uy, Initial residual = 0.12495, Final residual = 6.9253e-08, No Iterations 2
DILUPBiCGStab:  Solving for Uz, Initial residual = 0.043098, Final residual = 1.339e-08, No Iterations 2
DILUPBiCGStab:  Solving for O2, Initial residual = 0.11542, Final residual = 0.001475, No Iterations 1
DILUPBiCGStab:  Solving for H2O, Initial residual = 0.1179, Final residual = 0.0014652, No Iterations 1
DILUPBiCGStab:  Solving for CH4, Initial residual = 0.099337, Final residual = 0.0014958, No Iterations 1
DILUPBiCGStab:  Solving for CO2, Initial residual = 0.1179, Final residual = 0.0014652, No Iterations 1
      O2	min/ave/max  =	     0.19447	     0.23297	     0.23301
     H2O	min/ave/max  =	 6.9826e-242	  1.9518e-05	    0.017208
     CH4	min/ave/max  =	 4.1392e-242	  2.4304e-05	    0.026562
     CO2	min/ave/max  =	  8.529e-242	  2.3841e-05	    0.021019
      N2	min/ave/max  =	     0.74076	     0.76696	     0.76699
DILUPBiCGStab:  Solving for h, Initial residual = 0.11935, Final residual = 1.5697e-07, No Iterations 2
min/max(T) = 299.99, 646.42
GAMG:  Solving for p_rgh, Initial residual = 0.17488, Final residual = 0.0046192, No Iterations 2
diagonal:  Solving for rho, Initial residual = 0, Final residual = 0, No Iterations 0
time step continuity errors : sum local = 2.856e-05, global = -3.0796e-06, cumulative = -2.124e-05
GAMG:  Solving for p_rgh, Initial residual = 0.027631, Final residual = 4.1366e-07, No Iterations 8
diagonal:  Solving for rho, Initial residual = 0, Final residual = 0, No Iterations 0
time step continuity errors : sum local = 2.7653e-09, global = -1.2772e-09, cumulative = -2.1241e-05
DILUPBiCGStab:  Solving for k, Initial residual = 0.49406, Final residual = 7.1688e-09, No Iterations 2
ExecutionTime = 18.33 s  ClockTime = 18 s

Courant Number mean: 0.012733 max: 0.37168
deltaT = 0.011637
Time = 0.0534501

diagonal:  Solving for rho, Initial residual = 0, Final residual = 0, No Iterations 0
PIMPLE: iteration 1
DILUPBiCGStab:  Solving for Ux, Initial residual = 0.034876, Final residual = 9.2269e-09, No Iterations 2
DILUPBiCGStab:  Solving for Uy, Initial residual = 0.11077, Final residual = 4.6378e-08, No Iterations 2
DILUPBiCGStab:  Solving for Uz, Initial residual = 0.034889, Final residual = 8.7905e-09, No Iterations 2
DILUPBiCGStab:  Solving for O2, Initial residual = 0.098065, Final residual = 0.0010671, No Iterations 1
DILUPBiCGStab:  Solving for H2O, Initial residual = 0.10313, Final residual = 0.0011048, No Iterations 1
DILUPBiCGStab:  Solving for CH4, Initial residual = 0.062848, Final residual = 0.00079431, No Iterations 1
DILUPBiCGStab:  Solving for CO2, Initial residual = 0.10313, Final residual = 0.0011048, No Iterations 1
      O2	min/ave/max  =	     0.17527	     0.23294	     0.23301
     H2O	min/ave/max  =	 9.8804e-235	  3.2199e-05	    0.026237
     CH4	min/ave/max  =	   4.66e-235	  3.4321e-05	    0.036128
     CO2	min/ave/max  =	 1.2069e-234	   3.933e-05	    0.032048
      N2	min/ave/max  =	     0.73034	     0.76695	     0.76699
DILUPBiCGStab:  Solving for h, Initial residual = 0.1038, Final residual = 9.0301e-08, No Iterations 2
min/max(T) = 299.99, 801.98
GAMG:  Solving for p_rgh, Initial residual = 0.16948, Final residual = 0.016946, No Iterations 1
diagonal:  Solving for rho, Initial residual = 0, Final residual = 0, No Iterations 0
time step continuity errors : sum local = 0.00011916, global = 3.5125e-05, cumulative = 1.3884e-05
GAMG:  Solving for p_rgh, Initial residual = 0.022231, Final residual = 9.1713e-07, No Iterations 9
diagonal:  Solving for rho, Initial residual = 0, Final residual = 0, No Iterations 0
time step continuity errors : sum local = 7.9156e-09, global = 4.5112e-09, cumulative = 1.3889e-05
DILUPBiCGStab:  Solving for k, Initial residual = 0.41117, Final residual = 1.4478e-08, No Iterations 2
ExecutionTime = 20.37 s  ClockTime = 20 s

Courant Number mean: 0.01516 max: 0.45634
deltaT = 0.011637
Time = 0.0650876

diagonal:  Solving for rho, Initial residual = 0, Final residual = 0, No Iterations 0
PIMPLE: iteration 1
DILUPBiCGStab:  Solving for Ux, Initial residual = 0.087969, Final residual = 1.4746e-08, No Iterations 2
DILUPBiCGStab:  Solving for Uy, Initial residual = 0.1423, Final residual = 1.4793e-07, No Iterations 2
DILUPBiCGStab:  Solving for Uz, Initial residual = 0.087868, Final residual = 1.4044e-08, No Iterations 2
DILUPBiCGStab:  Solving for O2, Initial residual = 0.08277, Final residual = 0.0012348, No Iterations 1
DILUPBiCGStab:  Solving for H2O, Initial residual = 0.086272, Final residual = 0.0012667, No Iterations 1
DILUPBiCGStab:  Solving for CH4, Initial residual = 0.054417, Final residual = 0.00097234, No Iterations 1
DILUPBiCGStab:  Solving for CO2, Initial residual = 0.086272, Final residual = 0.0012667, No Iterations 1
      O2	min/ave/max  =	      0.1512	      0.2329	     0.23301
     H2O	min/ave/max  =	 2.6423e-230	  5.0967e-05	    0.037629
     CH4	min/ave/max  =	 1.0068e-230	  4.7913e-05	    0.047486
     CO2	min/ave/max  =	 3.2274e-230	  6.2254e-05	    0.045963
      N2	min/ave/max  =	     0.71774	     0.76694	     0.76699
Radiation solver iter: 0
GAMG:  Solving for ILambda_0_0, Initial residual = 1, Final residual = 0.036083, No Iterations 1
GAMG:  Solving for ILambda_1_0, Initial residual = 1, Final residual = 2.1748e-05, No Iterations 1
GAMG:  Solving for ILambda_2_0, Initial residual = 1, Final residual = 0.0025744, No Iterations 1
GAMG:  Solving for ILambda_3_0, Initial residual = 1, Final residual = 0.00063357, No Iterations 1
GAMG:  Solving for ILambda_4_0, Initial residual = 1, Final residual = 0.012674, No Iterations 1
GAMG:  Solving for ILambda_5_0, Initial residual = 1, Final residual = 0.1317, No Iterations 1
GAMG:  Solving for ILambda_6_0, Initial residual = 1, Final residual = 0.53448, No Iterations 1
GAMG:  Solving for ILambda_7_0, Initial residual = 1, Final residual = 0.50702, No Iterations 1
GAMG:  Solving for ILambda_8_0, Initial residual = 1, Final residual = 0.85124, No Iterations 1
GAMG:  Solving for ILambda_9_0, Initial residual = 1, Final residual = 0.65492, No Iterations 1
GAMG:  Solving for ILambda_10_0, Initial residual = 1, Final residual = 0.1665, No Iterations 1
GAMG:  Solving for ILambda_11_0, Initial residual = 1, Final residual = 0.011013, No Iterations 1
GAMG:  Solving for ILambda_12_0, Initial residual = 1, Final residual = 2.1165e-07, No Iterations 1
GAMG:  Solving for ILambda_13_0, Initial residual = 1, Final residual = 4.888e-08, No Iterations 1
GAMG:  Solving for ILambda_14_0, Initial residual = 1, Final residual = 0.55922, No Iterations 1
GAMG:  Solving for ILambda_15_0, Initial residual = 1, Final residual = 0.62773, No Iterations 1
DILUPBiCGStab:  Solving for h, Initial residual = 0.086312, Final residual = 2.149e-07, No Iterations 2
min/max(T) = 299.99, 972.52
GAMG:  Solving for p_rgh, Initial residual = 0.12196, Final residual = 0.011485, No Iterations 1
diagonal:  Solving for rho, Initial residual = 0, Final residual = 0, No Iterations 0
time step continuity errors : sum local = 0.00013512, global = 5.7689e-06, cumulative = 1.9658e-05
GAMG:  Solving for p_rgh, Initial residual = 0.019031, Final residual = 9.6467e-07, No Iterations 8
diagonal:  Solving for rho, Initial residual = 0, Final residual = 0, No Iterations 0
time step continuity errors : sum local = 1.1942e-08, global = 7.2946e-09, cumulative = 1.9665e-05
DILUPBiCGStab:  Solving for k, Initial residual = 0.33477, Final residual = 2.1474e-08, No Iterations 2
ExecutionTime = 23.56 s  ClockTime = 24 s

Courant Number mean: 0.017826 max: 0.52185
deltaT = 0.011637
Time = 0.0767251

diagonal:  Solving for rho, Initial residual = 0, Final residual = 0, No Iterations 0
PIMPLE: iteration 1
DILUPBiCGStab:  Solving for Ux, Initial residual = 0.087096, Final residual = 3.8124e-08, No Iterations 2
DILUPBiCGStab:  Solving for Uy, Initial residual = 0.13872, Final residual = 2.9204e-07, No Iterations 2
DILUPBiCGStab:  Solving for Uz, Initial residual = 0.086958, Final residual = 3.6824e-08, No Iterations 2
DILUPBiCGStab:  Solving for O2, Initial residual = 0.066539, Final residual = 0.0010781, No Iterations 1
DILUPBiCGStab:  Solving for H2O, Initial residual = 0.068995, Final residual = 0.0011016, No Iterations 1
DILUPBiCGStab:  Solving for CH4, Initial residual = 0.044202, Final residual = 0.00087397, No Iterations 1
DILUPBiCGStab:  Solving for CO2, Initial residual = 0.068995, Final residual = 0.0011016, No Iterations 1
      O2	min/ave/max  =	     0.12534	     0.23285	     0.23301
     H2O	min/ave/max  =	 8.1458e-226	  7.5924e-05	    0.049673
     CH4	min/ave/max  =	 2.5539e-226	   6.524e-05	    0.061594
     CO2	min/ave/max  =	 9.9498e-226	  9.2738e-05	    0.060674
      N2	min/ave/max  =	     0.70283	     0.76691	     0.76699
DILUPBiCGStab:  Solving for h, Initial residual = 0.068535, Final residual = 2.5276e-07, No Iterations 2
min/max(T) = 299.99, 1121.5
GAMG:  Solving for p_rgh, Initial residual = 0.12015, Final residual = 0.011291, No Iterations 1
diagonal:  Solving for rho, Initial residual = 0, Final residual = 0, No Iterations 0
time step continuity errors : sum local = 0.00015099, global = -1.024e-05, cumulative = 9.4246e-06
GAMG:  Solving for p_rgh, Initial residual = 0.020349, Final residual = 9.3373e-07, No Iterations 8
diagonal:  Solving for rho, Initial residual = 0, Final residual = 0, No Iterations 0
time step continuity errors : sum local = 1.2627e-08, global = -6.3272e-09, cumulative = 9.4182e-06
DILUPBiCGStab:  Solving for k, Initial residual = 0.26915, Final residual = 1.5357e-08, No Iterations 2
ExecutionTime = 25.58 s  ClockTime = 26 s

Courant Number mean: 0.019805 max: 0.52286
deltaT = 0.011637
Time = 0.0883625

diagonal:  Solving for rho, Initial residual = 0, Final residual = 0, No Iterations 0
PIMPLE: iteration 1
DILUPBiCGStab:  Solving for Ux, Initial residual = 0.071118, Final residual = 5.3013e-08, No Iterations 2
DILUPBiCGStab:  Solving for Uy, Initial residual = 0.12066, Final residual = 4.1176e-07, No Iterations 2
DILUPBiCGStab:  Solving for Uz, Initial residual = 0.071026, Final residual = 5.2014e-08, No Iterations 2
DILUPBiCGStab:  Solving for O2, Initial residual = 0.051877, Final residual = 0.0007605, No Iterations 1
DILUPBiCGStab:  Solving for H2O, Initial residual = 0.053694, Final residual = 0.00078102, No Iterations 1
DILUPBiCGStab:  Solving for CH4, Initial residual = 0.033916, Final residual = 0.00059442, No Iterations 1
DILUPBiCGStab:  Solving for CO2, Initial residual = 0.053694, Final residual = 0.00078102, No Iterations 1
      O2	min/ave/max  =	      0.1023	     0.23279	     0.23301
     H2O	min/ave/max  =	 1.7542e-221	  0.00010559	    0.059823
     CH4	min/ave/max  =	 4.5307e-222	  8.5302e-05	    0.078899
     CO2	min/ave/max  =	 2.1427e-221	  0.00012898	    0.073071
      N2	min/ave/max  =	     0.68612	     0.76689	     0.76699
DILUPBiCGStab:  Solving for h, Initial residual = 0.052879, Final residual = 1.9019e-07, No Iterations 2
min/max(T) = 299.99, 1215.4
GAMG:  Solving for p_rgh, Initial residual = 0.1252, Final residual = 0.011799, No Iterations 1
diagonal:  Solving for rho, Initial residual = 0, Final residual = 0, No Iterations 0
time step continuity errors : sum local = 0.00016088, global = -1.7037e-05, cumulative = -7.6183e-06
GAMG:  Solving for p_rgh, Initial residual = 0.021336, Final residual = 3.905e-07, No Iterations 9
diagonal:  Solving for rho, Initial residual = 0, Final residual = 0, No Iterations 0
time step continuity errors : sum local = 5.4294e-09, global = -2.7266e-09, cumulative = -7.6211e-06
DILUPBiCGStab:  Solving for k, Initial residual = 0.21957, Final residual = 1.1108e-08, No Iterations 2
ExecutionTime = 27.65 s  ClockTime = 28 s

Courant Number mean: 0.020732 max: 0.48727
deltaT = 0.011637
Time = 0.1

diagonal:  Solving for rho, Initial residual = 0, Final residual = 0, No Iterations 0
PIMPLE: iteration 1
DILUPBiCGStab:  Solving for Ux, Initial residual = 0.053135, Final residual = 4.3119e-08, No Iterations 2
DILUPBiCGStab:  Solving for Uy, Initial residual = 0.10351, Final residual = 2.9335e-07, No Iterations 2
DILUPBiCGStab:  Solving for Uz, Initial residual = 0.053009, Final residual = 4.2001e-08, No Iterations 2
DILUPBiCGStab:  Solving for O2, Initial residual = 0.04093, Final residual = 0.00048928, No Iterations 1
DILUPBiCGStab:  Solving for H2O, Initial residual = 0.042556, Final residual = 0.00051097, No Iterations 1
DILUPBiCGStab:  Solving for CH4, Initial residual = 0.023979, Final residual = 0.00030002, No Iterations 1
DILUPBiCGStab:  Solving for CO2, Initial residual = 0.042556, Final residual = 0.00051097, No Iterations 1
      O2	min/ave/max  =	    0.082062	     0.23272	     0.23301
     H2O	min/ave/max  =	 8.8482e-218	  0.00013937	    0.068275
     CH4	min/ave/max  =	 1.8918e-218	  0.00010495	     0.09813
     CO2	min/ave/max  =	 1.0808e-217	  0.00017023	    0.083396
      N2	min/ave/max  =	     0.66851	     0.76686	     0.76699
DILUPBiCGStab:  Solving for h, Initial residual = 0.041552, Final residual = 1.055e-07, No Iterations 2
min/max(T) = 299.98, 1269.9
GAMG:  Solving for p_rgh, Initial residual = 0.12788, Final residual = 0.012775, No Iterations 1
diagonal:  Solving for rho, Initial residual = 0, Final residual = 0, No Iterations 0
time step continuity errors : sum local = 0.00017002, global = -1.5998e-05, cumulative = -2.3619e-05
GAMG:  Solving for p_rgh, Initial residual = 0.022173, Final residual = 4.316e-07, No Iterations 9
diagonal:  Solving for rho, Initial residual = 0, Final residual = 0, No Iterations 0
time step continuity errors : sum local = 5.751e-09, global = -2.8969e-09, cumulative = -2.3622e-05
DILUPBiCGStab:  Solving for k, Initial residual = 0.18438, Final residual = 7.427e-09, No Iterations 2
ExecutionTime = 29.75 s  ClockTime = 30 s +

Courant Number mean: 0.020771 max: 0.47399
deltaT = 0.0125
Time = 0.1125

diagonal:  Solving for rho, Initial residual = 0, Final residual = 0, No Iterations 0
PIMPLE: iteration 1
DILUPBiCGStab:  Solving for Ux, Initial residual = 0.041977, Final residual = 4.9424e-08, No Iterations 2
DILUPBiCGStab:  Solving for Uy, Initial residual = 0.10414, Final residual = 3.1587e-07, No Iterations 2
DILUPBiCGStab:  Solving for Uz, Initial residual = 0.041831, Final residual = 4.6728e-08, No Iterations 2
DILUPBiCGStab:  Solving for O2, Initial residual = 0.03383, Final residual = 0.00040552, No Iterations 1
DILUPBiCGStab:  Solving for H2O, Initial residual = 0.035114, Final residual = 0.00042697, No Iterations 1
DILUPBiCGStab:  Solving for CH4, Initial residual = 0.021248, Final residual = 0.00021787, No Iterations 1
DILUPBiCGStab:  Solving for CO2, Initial residual = 0.035114, Final residual = 0.00042697, No Iterations 1
      O2	min/ave/max  =	    0.065042	     0.23265	     0.23301
     H2O	min/ave/max  =	  2.018e-213	  0.00017633	     0.07463
     CH4	min/ave/max  =	 3.6194e-214	  0.00012537	     0.12028
     CO2	min/ave/max  =	 2.4649e-213	  0.00021538	    0.091157
      N2	min/ave/max  =	     0.64938	     0.76683	     0.76699
DILUPBiCGStab:  Solving for h, Initial residual = 0.033788, Final residual = 8.957e-08, No Iterations 2
min/max(T) = 299.98, 1400.9
GAMG:  Solving for p_rgh, Initial residual = 0.13522, Final residual = 0.0031846, No Iterations 2
diagonal:  Solving for rho, Initial residual = 0, Final residual = 0, No Iterations 0
time step continuity errors : sum local = 4.7871e-05, global = -1.0769e-05, cumulative = -3.4391e-05
GAMG:  Solving for p_rgh, Initial residual = 0.02359, Final residual = 7.3263e-07, No Iterations 8
diagonal:  Solving for rho, Initial residual = 0, Final residual = 0, No Iterations 0
time step continuity errors : sum local = 1.0975e-08, global = -5.637e-09, cumulative = -3.4396e-05
DILUPBiCGStab:  Solving for k, Initial residual = 0.17021, Final residual = 7.3311e-09, No Iterations 2
ExecutionTime = 31.8 s  ClockTime = 32 s

Courant Number mean: 0.021475 max: 0.4791
deltaT = 0.014583
Time = 0.127083

diagonal:  Solving for rho, Initial residual = 0, Final residual = 0, No Iterations 0
PIMPLE: iteration 1
DILUPBiCGStab:  Solving for Ux, Initial residual = 0.06645, Final residual = 1.1429e-07, No Iterations 2
DILUPBiCGStab:  Solving for Uy, Initial residual = 0.1443, Final residual = 6.1313e-07, No Iterations 2
DILUPBiCGStab:  Solving for Uz, Initial residual = 0.066405, Final residual = 1.0919e-07, No Iterations 2
DILUPBiCGStab:  Solving for O2, Initial residual = 0.027946, Final residual = 0.00038783, No Iterations 1
DILUPBiCGStab:  Solving for H2O, Initial residual = 0.028807, Final residual = 0.0004063, No Iterations 1
DILUPBiCGStab:  Solving for CH4, Initial residual = 0.020402, Final residual = 0.00022727, No Iterations 1
DILUPBiCGStab:  Solving for CO2, Initial residual = 0.028807, Final residual = 0.0004063, No Iterations 1
      O2	min/ave/max  =	    0.050929	     0.23258	     0.23301
     H2O	min/ave/max  =	 1.3737e-207	  0.00021293	    0.080309
     CH4	min/ave/max  =	 2.0449e-208	  0.00014818	     0.14616
     CO2	min/ave/max  =	  1.678e-207	  0.00026009	    0.098095
      N2	min/ave/max  =	      0.6281	      0.7668	     0.76699
DILUPBiCGStab:  Solving for h, Initial residual = 0.027015, Final residual = 1.2256e-07, No Iterations 2
min/max(T) = 299.98, 1455.2
GAMG:  Solving for p_rgh, Initial residual = 0.15503, Final residual = 0.00344, No Iterations 2
diagonal:  Solving for rho, Initial residual = 0, Final residual = 0, No Iterations 0
time step continuity errors : sum local = 6.9286e-05, global = -1.5314e-05, cumulative = -4.971e-05
GAMG:  Solving for p_rgh, Initial residual = 0.02824, Final residual = 7.7733e-07, No Iterations 8
diagonal:  Solving for rho, Initial residual = 0, Final residual = 0, No Iterations 0
time step continuity errors : sum local = 1.5627e-08, global = -7.9805e-09, cumulative = -4.9718e-05
DILUPBiCGStab:  Solving for k, Initial residual = 0.1737, Final residual = 9.6251e-07, No Iterations 1
ExecutionTime = 33.83 s  ClockTime = 34 s

Courant Number mean: 0.022845 max: 0.54403
deltaT = 0.014583
Time = 0.141667

diagonal:  Solving for rho, Initial residual = 0, Final residual = 0, No Iterations 0
PIMPLE: iteration 1
DILUPBiCGStab:  Solving for Ux, Initial residual = 0.098623, Final residual = 7.7636e-08, No Iterations 2
DILUPBiCGStab:  Solving for Uy, Initial residual = 0.17409, Final residual = 2.1665e-07, No Iterations 2
DILUPBiCGStab:  Solving for Uz, Initial residual = 0.098597, Final residual = 7.4793e-08, No Iterations 2
DILUPBiCGStab:  Solving for O2, Initial residual = 0.022073, Final residual = 0.00024169, No Iterations 1
DILUPBiCGStab:  Solving for H2O, Initial residual = 0.022687, Final residual = 0.00025049, No Iterations 1
DILUPBiCGStab:  Solving for CH4, Initial residual = 0.016439, Final residual = 0.00015509, No Iterations 1
DILUPBiCGStab:  Solving for CO2, Initial residual = 0.022687, Final residual = 0.00025049, No Iterations 1
      O2	min/ave/max  =	    0.039006	     0.23251	     0.23301
     H2O	min/ave/max  =	 2.2443e-204	  0.00024483	    0.087348
     CH4	min/ave/max  =	 2.8528e-205	  0.00016591	     0.17596
     CO2	min/ave/max  =	 2.7414e-204	  0.00029905	     0.10669
      N2	min/ave/max  =	     0.60427	     0.76678	     0.76699
DILUPBiCGStab:  Solving for h, Initial residual = 0.021423, Final residual = 4.6562e-08, No Iterations 2
min/max(T) = 299.98, 1484.6
GAMG:  Solving for p_rgh, Initial residual = 0.13277, Final residual = 0.0025977, No Iterations 2
diagonal:  Solving for rho, Initial residual = 0, Final residual = 0, No Iterations 0
time step continuity errors : sum local = 5.2413e-05, global = -1.8136e-06, cumulative = -5.1531e-05
GAMG:  Solving for p_rgh, Initial residual = 0.022641, Final residual = 9.4224e-07, No Iterations 7
diagonal:  Solving for rho, Initial residual = 0, Final residual = 0, No Iterations 0
time step continuity errors : sum local = 1.9336e-08, global = 5.1202e-09, cumulative = -5.1526e-05
DILUPBiCGStab:  Solving for k, Initial residual = 0.15721, Final residual = 2.474e-08, No Iterations 2
ExecutionTime = 35.84 s  ClockTime = 36 s

Courant Number mean: 0.020611 max: 0.62972
deltaT = 0.0097222
Time = 0.151389

diagonal:  Solving for rho, Initial residual = 0, Final residual = 0, No Iterations 0
PIMPLE: iteration 1
DILUPBiCGStab:  Solving for Ux, Initial residual = 0.066038, Final residual = 6.5307e-07, No Iterations 1
DILUPBiCGStab:  Solving for Uy, Initial residual = 0.098905, Final residual = 7.6539e-09, No Iterations 2
DILUPBiCGStab:  Solving for Uz, Initial residual = 0.066032, Final residual = 6.6092e-07, No Iterations 1
DILUPBiCGStab:  Solving for O2, Initial residual = 0.015366, Final residual = 7.2774e-05, No Iterations 1
DILUPBiCGStab:  Solving for H2O, Initial residual = 0.016077, Final residual = 7.5497e-05, No Iterations 1
DILUPBiCGStab:  Solving for CH4, Initial residual = 0.0084413, Final residual = 5.0068e-05, No Iterations 1
DILUPBiCGStab:  Solving for CO2, Initial residual = 0.016077, Final residual = 7.5497e-05, No Iterations 1
      O2	min/ave/max  =	    0.030203	     0.23246	     0.23301
     H2O	min/ave/max  =	 2.5977e-203	  0.00027017	    0.093263
     CH4	min/ave/max  =	 2.7206e-204	  0.00017329	     0.19568
     CO2	min/ave/max  =	  3.173e-203	     0.00033	     0.11392
      N2	min/ave/max  =	     0.58839	     0.76676	     0.76699
DILUPBiCGStab:  Solving for h, Initial residual = 0.015567, Final residual = 4.0321e-07, No Iterations 1
min/max(T) = 299.98, 1515.1
GAMG:  Solving for p_rgh, Initial residual = 0.080291, Final residual = 0.0075337, No Iterations 1
diagonal:  Solving for rho, Initial residual = 0, Final residual = 0, No Iterations 0
time step continuity errors : sum local = 7.3261e-05, global = 1.8097e-05, cumulative = -3.343e-05
GAMG:  Solving for p_rgh, Initial residual = 0.0094098, Final residual = 9.8862e-07, No Iterations 8
diagonal:  Solving for rho, Initial residual = 0, Final residual = 0, No Iterations 0
time step continuity errors : sum local = 1.0298e-08, global = 5.9237e-09, cumulative = -3.3424e-05
DILUPBiCGStab:  Solving for k, Initial residual = 0.096767, Final residual = 5.9318e-07, No Iterations 1
ExecutionTime = 37.84 s  ClockTime = 38 s

Courant Number mean: 0.013732 max: 0.41577
deltaT = 0.0097222
Time = 0.161111

diagonal:  Solving for rho, Initial residual = 0, Final residual = 0, No Iterations 0
PIMPLE: iteration 1
DILUPBiCGStab:  Solving for Ux, Initial residual = 0.035029, Final residual = 5.1992e-07, No Iterations 1
DILUPBiCGStab:  Solving for Uy, Initial residual = 0.073418, Final residual = 9.5647e-09, No Iterations 2
DILUPBiCGStab:  Solving for Uz, Initial residual = 0.035029, Final residual = 5.032e-07, No Iterations 1
DILUPBiCGStab:  Solving for O2, Initial residual = 0.014666, Final residual = 8.4247e-05, No Iterations 1
DILUPBiCGStab:  Solving for H2O, Initial residual = 0.015219, Final residual = 8.791e-05, No Iterations 1
DILUPBiCGStab:  Solving for CH4, Initial residual = 0.0084464, Final residual = 4.8842e-05, No Iterations 1
DILUPBiCGStab:  Solving for CO2, Initial residual = 0.015219, Final residual = 8.791e-05, No Iterations 1
      O2	min/ave/max  =	    0.023399	     0.23241	     0.23301
     H2O	min/ave/max  =	 2.9397e-202	  0.00029546	    0.097787
     CH4	min/ave/max  =	   2.55e-203	  0.00018317	      0.2157
     CO2	min/ave/max  =	 3.5907e-202	  0.00036089	     0.11944
      N2	min/ave/max  =	     0.57267	     0.76675	     0.76699
DILUPBiCGStab:  Solving for h, Initial residual = 0.014677, Final residual = 5.0002e-07, No Iterations 1
min/max(T) = 299.97, 1521.2
GAMG:  Solving for p_rgh, Initial residual = 0.067413, Final residual = 0.0010239, No Iterations 2
diagonal:  Solving for rho, Initial residual = 0, Final residual = 0, No Iterations 0
time step continuity errors : sum local = 1.2413e-05, global = 1.4093e-06, cumulative = -3.2015e-05
GAMG:  Solving for p_rgh, Initial residual = 0.0065906, Final residual = 3.957e-07, No Iterations 7
diagonal:  Solving for rho, Initial residual = 0, Final residual = 0, No Iterations 0
time step continuity errors : sum local = 4.8981e-09, global = 2.9556e-09, cumulative = -3.2012e-05
DILUPBiCGStab:  Solving for k, Initial residual = 0.091332, Final residual = 7.6645e-09, No Iterations 2
ExecutionTime = 39.87 s  ClockTime = 40 s

Courant Number mean: 0.013806 max: 0.46062
deltaT = 0.0097222
Time = 0.170833

diagonal:  Solving for rho, Initial residual = 0, Final residual = 0, No Iterations 0
PIMPLE: iteration 1
DILUPBiCGStab:  Solving for Ux, Initial residual = 0.035569, Final residual = 6.5378e-07, No Iterations 1
DILUPBiCGStab:  Solving for Uy, Initial residual = 0.075357, Final residual = 1.3702e-08, No Iterations 2
DILUPBiCGStab:  Solving for Uz, Initial residual = 0.035593, Final residual = 6.3188e-07, No Iterations 1
DILUPBiCGStab:  Solving for O2, Initial residual = 0.014209, Final residual = 8.9062e-05, No Iterations 1
DILUPBiCGStab:  Solving for H2O, Initial residual = 0.014622, Final residual = 9.2593e-05, No Iterations 1
DILUPBiCGStab:  Solving for CH4, Initial residual = 0.0091591, Final residual = 5.6888e-05, No Iterations 1
DILUPBiCGStab:  Solving for CO2, Initial residual = 0.014622, Final residual = 9.2593e-05, No Iterations 1
      O2	min/ave/max  =	    0.018097	     0.23237	     0.23301
     H2O	min/ave/max  =	 3.1996e-201	  0.00031844	     0.10131
     CH4	min/ave/max  =	 2.3057e-202	  0.00019217	     0.23555
     CO2	min/ave/max  =	 3.9081e-201	  0.00038896	     0.12375
      N2	min/ave/max  =	      0.5574	     0.76673	     0.76699
DILUPBiCGStab:  Solving for h, Initial residual = 0.014328, Final residual = 6.0058e-07, No Iterations 1
min/max(T) = 299.97, 1543.1
GAMG:  Solving for p_rgh, Initial residual = 0.066752, Final residual = 0.0012797, No Iterations 2
diagonal:  Solving for rho, Initial residual = 0, Final residual = 0, No Iterations 0
time step continuity errors : sum local = 1.6243e-05, global = -4.432e-06, cumulative = -3.6444e-05
GAMG:  Solving for p_rgh, Initial residual = 0.0071451, Final residual = 7.0818e-07, No Iterations 7
diagonal:  Solving for rho, Initial residual = 0, Final residual = 0, No Iterations 0
time step continuity errors : sum local = 8.9535e-09, global = -4.5137e-09, cumulative = -3.6448e-05
DILUPBiCGStab:  Solving for k, Initial residual = 0.085813, Final residual = 1.9027e-08, No Iterations 2
ExecutionTime = 41.87 s  ClockTime = 42 s

Courant Number mean: 0.013592 max: 0.53077
deltaT = 0.0097222
Time = 0.180556

diagonal:  Solving for rho, Initial residual = 0, Final residual = 0, No Iterations 0
PIMPLE: iteration 1
DILUPBiCGStab:  Solving for Ux, Initial residual = 0.048171, Final residual = 9.8049e-07, No Iterations 1
DILUPBiCGStab:  Solving for Uy, Initial residual = 0.088319, Final residual = 2.4264e-08, No Iterations 2
DILUPBiCGStab:  Solving for Uz, Initial residual = 0.048203, Final residual = 9.5922e-07, No Iterations 1
DILUPBiCGStab:  Solving for O2, Initial residual = 0.013694, Final residual = 9.3776e-05, No Iterations 1
DILUPBiCGStab:  Solving for H2O, Initial residual = 0.014137, Final residual = 9.707e-05, No Iterations 1
DILUPBiCGStab:  Solving for CH4, Initial residual = 0.009418, Final residual = 6.9631e-05, No Iterations 1
DILUPBiCGStab:  Solving for CO2, Initial residual = 0.014137, Final residual = 9.707e-05, No Iterations 1
      O2	min/ave/max  =	    0.013991	     0.23233	     0.23301
     H2O	min/ave/max  =	 3.3317e-200	  0.00033835	     0.10395
     CH4	min/ave/max  =	 2.0023e-201	  0.00020074	     0.25484
     CO2	min/ave/max  =	 4.0695e-200	  0.00041328	     0.12697
      N2	min/ave/max  =	     0.54266	     0.76672	     0.76699
Radiation solver iter: 0
GAMG:  Solving for ILambda_0_0, Initial residual = 0.80973, Final residual = 0.026836, No Iterations 1
GAMG:  Solving for ILambda_1_0, Initial residual = 0.85028, Final residual = 2.9836e-05, No Iterations 1
GAMG:  Solving for ILambda_2_0, Initial residual = 0.92599, Final residual = 0.13076, No Iterations 1
GAMG:  Solving for ILambda_3_0, Initial residual = 0.93006, Final residual = 0.039752, No Iterations 1
GAMG:  Solving for ILambda_4_0, Initial residual = 0.92946, Final residual = 0.030616, No Iterations 1
GAMG:  Solving for ILambda_5_0, Initial residual = 0.92231, Final residual = 0.13275, No Iterations 1
GAMG:  Solving for ILambda_6_0, Initial residual = 0.85563, Final residual = 0.41716, No Iterations 1
GAMG:  Solving for ILambda_7_0, Initial residual = 0.81642, Final residual = 0.38507, No Iterations 1
GAMG:  Solving for ILambda_8_0, Initial residual = 0.81652, Final residual = 0.64495, No Iterations 1
GAMG:  Solving for ILambda_9_0, Initial residual = 0.85513, Final residual = 0.51888, No Iterations 1
GAMG:  Solving for ILambda_10_0, Initial residual = 0.92096, Final residual = 0.13459, No Iterations 1
GAMG:  Solving for ILambda_11_0, Initial residual = 0.92952, Final residual = 0.020476, No Iterations 1
GAMG:  Solving for ILambda_12_0, Initial residual = 0.93008, Final residual = 6.0209e-09, No Iterations 1
GAMG:  Solving for ILambda_13_0, Initial residual = 0.926, Final residual = 1.4186e-09, No Iterations 1
GAMG:  Solving for ILambda_14_0, Initial residual = 0.85429, Final residual = 0.45422, No Iterations 1
GAMG:  Solving for ILambda_15_0, Initial residual = 0.81647, Final residual = 0.47883, No Iterations 1
DILUPBiCGStab:  Solving for h, Initial residual = 0.013959, Final residual = 6.8772e-07, No Iterations 1
min/max(T) = 299.97, 1566.2
GAMG:  Solving for p_rgh, Initial residual = 0.067933, Final residual = 0.0012669, No Iterations 2
diagonal:  Solving for rho, Initial residual = 0, Final residual = 0, No Iterations 0
time step continuity errors : sum local = 1.597e-05, global = -3.0847e-06, cumulative = -3.9533e-05
GAMG:  Solving for p_rgh, Initial residual = 0.0075679, Final residual = 5.3207e-07, No Iterations 7
diagonal:  Solving for rho, Initial residual = 0, Final residual = 0, No Iterations 0
time step continuity errors : sum local = 6.7414e-09, global = -3.2441e-09, cumulative = -3.9536e-05
DILUPBiCGStab:  Solving for k, Initial residual = 0.080041, Final residual = 4.3419e-08, No Iterations 2
ExecutionTime = 45.07 s  ClockTime = 45 s

Courant Number mean: 0.013213 max: 0.63082
deltaT = 0.0048611
Time = 0.185417

diagonal:  Solving for rho, Initial residual = 0, Final residual = 0, No Iterations 0
PIMPLE: iteration 1
DILUPBiCGStab:  Solving for Ux, Initial residual = 0.024312, Final residual = 3.6415e-08, No Iterations 1
DILUPBiCGStab:  Solving for Uy, Initial residual = 0.033351, Final residual = 7.6939e-08, No Iterations 1
DILUPBiCGStab:  Solving for Uz, Initial residual = 0.024315, Final residual = 3.5623e-08, No Iterations 1
DILUPBiCGStab:  Solving for O2, Initial residual = 0.0076861, Final residual = 1.6519e-05, No Iterations 1
DILUPBiCGStab:  Solving for H2O, Initial residual = 0.0081541, Final residual = 1.7087e-05, No Iterations 1
DILUPBiCGStab:  Solving for CH4, Initial residual = 0.0048801, Final residual = 1.4654e-05, No Iterations 1
DILUPBiCGStab:  Solving for CO2, Initial residual = 0.0081541, Final residual = 1.7087e-05, No Iterations 1
      O2	min/ave/max  =	    0.010998	      0.2323	     0.23301
     H2O	min/ave/max  =	 7.9472e-200	  0.00035404	     0.10625
     CH4	min/ave/max  =	 3.8116e-201	  0.00020153	     0.26395
     CO2	min/ave/max  =	 9.7072e-200	  0.00043245	     0.12979
      N2	min/ave/max  =	     0.53542	     0.76671	     0.76699
DILUPBiCGStab:  Solving for h, Initial residual = 0.0082281, Final residual = 4.5522e-08, No Iterations 1
min/max(T) = 299.97, 1605.8
GAMG:  Solving for p_rgh, Initial residual = 0.041375, Final residual = 0.0023897, No Iterations 2
diagonal:  Solving for rho, Initial residual = 0, Final residual = 0, No Iterations 0
time step continuity errors : sum local = 7.8147e-06, global = 5.0235e-06, cumulative = -3.4513e-05
GAMG:  Solving for p_rgh, Initial residual = 0.0027061, Final residual = 7.9358e-07, No Iterations 7
diagonal:  Solving for rho, Initial residual = 0, Final residual = 0, No Iterations 0
time step continuity errors : sum local = 3.7775e-09, global = 2.0301e-09, cumulative = -3.4511e-05
DILUPBiCGStab:  Solving for k, Initial residual = 0.035185, Final residual = 9.2373e-08, No Iterations 1
ExecutionTime = 47.06 s  ClockTime = 47 s

Courant Number mean: 0.00738 max: 0.29486
deltaT = 0.0048611
Time = 0.190278

diagonal:  Solving for rho, Initial residual = 0, Final residual = 0, No Iterations 0
PIMPLE: iteration 1
DILUPBiCGStab:  Solving for Ux, Initial residual = 0.056616, Final residual = 4.4202e-08, No Iterations 1
DILUPBiCGStab:  Solving for Uy, Initial residual = 0.052488, Final residual = 9.3088e-08, No Iterations 1
DILUPBiCGStab:  Solving for Uz, Initial residual = 0.056679, Final residual = 3.7103e-08, No Iterations 1
DILUPBiCGStab:  Solving for O2, Initial residual = 0.0077529, Final residual = 2.0615e-05, No Iterations 1
DILUPBiCGStab:  Solving for H2O, Initial residual = 0.0081363, Final residual = 2.1628e-05, No Iterations 1
DILUPBiCGStab:  Solving for CH4, Initial residual = 0.004308, Final residual = 1.307e-05, No Iterations 1
DILUPBiCGStab:  Solving for CO2, Initial residual = 0.0081363, Final residual = 2.1628e-05, No Iterations 1
      O2	min/ave/max  =	    0.008637	     0.23226	     0.23301
     H2O	min/ave/max  =	 1.8902e-199	  0.00037108	     0.10795
     CH4	min/ave/max  =	 7.2244e-201	  0.00020556	     0.27424
     CO2	min/ave/max  =	 2.3088e-199	  0.00045326	     0.13186
      N2	min/ave/max  =	     0.52755	     0.76671	     0.76699
DILUPBiCGStab:  Solving for h, Initial residual = 0.008072, Final residual = 5.6392e-08, No Iterations 1
min/max(T) = 299.97, 1623.1
GAMG:  Solving for p_rgh, Initial residual = 0.027439, Final residual = 0.00061194, No Iterations 2
diagonal:  Solving for rho, Initial residual = 0, Final residual = 0, No Iterations 0
time step continuity errors : sum local = 3.1256e-06, global = -1.857e-06, cumulative = -3.6368e-05
GAMG:  Solving for p_rgh, Initial residual = 0.0017623, Final residual = 4.4411e-07, No Iterations 7
diagonal:  Solving for rho, Initial residual = 0, Final residual = 0, No Iterations 0
time step continuity errors : sum local = 2.2147e-09, global = -1.2357e-09, cumulative = -3.6369e-05
DILUPBiCGStab:  Solving for k, Initial residual = 0.033943, Final residual = 1.1914e-07, No Iterations 1
ExecutionTime = 49.07 s  ClockTime = 49 s

Courant Number mean: 0.0079879 max: 0.32488
deltaT = 0.0048611
Time = 0.195139

diagonal:  Solving for rho, Initial residual = 0, Final residual = 0, No Iterations 0
PIMPLE: iteration 1
DILUPBiCGStab:  Solving for Ux, Initial residual = 0.040708, Final residual = 4.532e-08, No Iterations 1
DILUPBiCGStab:  Solving for Uy, Initial residual = 0.040629, Final residual = 8.6936e-08, No Iterations 1
DILUPBiCGStab:  Solving for Uz, Initial residual = 0.040728, Final residual = 4.7559e-08, No Iterations 1
DILUPBiCGStab:  Solving for O2, Initial residual = 0.007432, Final residual = 2.117e-05, No Iterations 1
DILUPBiCGStab:  Solving for H2O, Initial residual = 0.0077357, Final residual = 2.1995e-05, No Iterations 1
DILUPBiCGStab:  Solving for CH4, Initial residual = 0.0044854, Final residual = 1.538e-05, No Iterations 1
DILUPBiCGStab:  Solving for CO2, Initial residual = 0.0077357, Final residual = 2.1995e-05, No Iterations 1
      O2	min/ave/max  =	   0.0067739	     0.23223	     0.23301
     H2O	min/ave/max  =	 4.4622e-199	  0.00038677	     0.10968
     CH4	min/ave/max  =	 1.3711e-200	  0.00020944	     0.28472
     CO2	min/ave/max  =	 5.4505e-199	  0.00047243	     0.13397
      N2	min/ave/max  =	     0.51962	      0.7667	     0.76699
DILUPBiCGStab:  Solving for h, Initial residual = 0.0076723, Final residual = 6.0141e-08, No Iterations 1
min/max(T) = 299.97, 1631
GAMG:  Solving for p_rgh, Initial residual = 0.028541, Final residual = 0.0012055, No Iterations 2
diagonal:  Solving for rho, Initial residual = 0, Final residual = 0, No Iterations 0
time step continuity errors : sum local = 5.8525e-06, global = -3.7327e-06, cumulative = -4.0102e-05
GAMG:  Solving for p_rgh, Initial residual = 0.0029499, Final residual = 7.3722e-07, No Iterations 7
diagonal:  Solving for rho, Initial residual = 0, Final residual = 0, No Iterations 0
time step continuity errors : sum local = 2.975e-09, global = -1.5578e-09, cumulative = -4.0103e-05
DILUPBiCGStab:  Solving for k, Initial residual = 0.03299, Final residual = 1.7944e-07, No Iterations 1
ExecutionTime = 51.04 s  ClockTime = 51 s

Courant Number mean: 0.0080446 max: 0.35801
deltaT = 0.0048611
Time = 0.2

diagonal:  Solving for rho, Initial residual = 0, Final residual = 0, No Iterations 0
PIMPLE: iteration 1
DILUPBiCGStab:  Solving for Ux, Initial residual = 0.014299, Final residual = 6.0096e-08, No Iterations 1
DILUPBiCGStab:  Solving for Uy, Initial residual = 0.024353, Final residual = 9.746e-08, No Iterations 1
DILUPBiCGStab:  Solving for Uz, Initial residual = 0.01428, Final residual = 5.4495e-08, No Iterations 1
DILUPBiCGStab:  Solving for O2, Initial residual = 0.0072111, Final residual = 2.0308e-05, No Iterations 1
DILUPBiCGStab:  Solving for H2O, Initial residual = 0.0074951, Final residual = 2.1039e-05, No Iterations 1
DILUPBiCGStab:  Solving for CH4, Initial residual = 0.004808, Final residual = 1.7384e-05, No Iterations 1
DILUPBiCGStab:  Solving for CO2, Initial residual = 0.0074951, Final residual = 2.1039e-05, No Iterations 1
      O2	min/ave/max  =	   0.0053113	     0.23221	     0.23301
     H2O	min/ave/max  =	 1.0471e-198	   0.0004007	     0.11181
     CH4	min/ave/max  =	 2.5927e-200	  0.00021297	     0.29515
     CO2	min/ave/max  =	 1.2789e-198	  0.00048944	     0.13657
      N2	min/ave/max  =	     0.51182	     0.76669	     0.76699
DILUPBiCGStab:  Solving for h, Initial residual = 0.0073997, Final residual = 6.0047e-08, No Iterations 1
min/max(T) = 299.97, 1638.4
GAMG:  Solving for p_rgh, Initial residual = 0.03631, Final residual = 0.0010582, No Iterations 2
diagonal:  Solving for rho, Initial residual = 0, Final residual = 0, No Iterations 0
time step continuity errors : sum local = 4.028e-06, global = -2.5945e-06, cumulative = -4.2698e-05
GAMG:  Solving for p_rgh, Initial residual = 0.0033073, Final residual = 7.2726e-07, No Iterations 7
diagonal:  Solving for rho, Initial residual = 0, Final residual = 0, No Iterations 0
time step continuity errors : sum local = 2.4174e-09, global = -1.2459e-09, cumulative = -4.2699e-05
DILUPBiCGStab:  Solving for k, Initial residual = 0.031981, Final residual = 2.5645e-07, No Iterations 1
ExecutionTime = 53.07 s  ClockTime = 53 s +

Courant Number mean: 0.007784 max: 0.38325
deltaT = 0.00625
Time = 0.20625

diagonal:  Solving for rho, Initial residual = 0, Final residual = 0, No Iterations 0
PIMPLE: iteration 1
DILUPBiCGStab:  Solving for Ux, Initial residual = 0.050437, Final residual = 3.3032e-07, No Iterations 1
DILUPBiCGStab:  Solving for Uy, Initial residual = 0.060427, Final residual = 5.049e-07, No Iterations 1
DILUPBiCGStab:  Solving for Uz, Initial residual = 0.050456, Final residual = 3.3387e-07, No Iterations 1
DILUPBiCGStab:  Solving for O2, Initial residual = 0.0089695, Final residual = 4.0459e-05, No Iterations 1
DILUPBiCGStab:  Solving for H2O, Initial residual = 0.0093574, Final residual = 4.1974e-05, No Iterations 1
DILUPBiCGStab:  Solving for CH4, Initial residual = 0.0065138, Final residual = 4.0055e-05, No Iterations 1
DILUPBiCGStab:  Solving for CO2, Initial residual = 0.0093574, Final residual = 4.1974e-05, No Iterations 1
      O2	min/ave/max  =	   0.0041513	     0.23218	     0.23301
     H2O	min/ave/max  =	 3.3989e-198	  0.00041371	     0.11344
     CH4	min/ave/max  =	  6.873e-200	  0.00021839	     0.30795
     CO2	min/ave/max  =	 4.1516e-198	  0.00050533	     0.13856
      N2	min/ave/max  =	     0.50239	     0.76668	     0.76699
DILUPBiCGStab:  Solving for h, Initial residual = 0.0094694, Final residual = 2.1754e-07, No Iterations 1
min/max(T) = 299.97, 1621
GAMG:  Solving for p_rgh, Initial residual = 0.055086, Final residual = 0.0011319, No Iterations 2
diagonal:  Solving for rho, Initial residual = 0, Final residual = 0, No Iterations 0
time step continuity errors : sum local = 5.8922e-06, global = -3.4082e-06, cumulative = -4.6107e-05
GAMG:  Solving for p_rgh, Initial residual = 0.0051744, Final residual = 8.594e-07, No Iterations 7
diagonal:  Solving for rho, Initial residual = 0, Final residual = 0, No Iterations 0
time step continuity errors : sum local = 4.3297e-09, global = -2.2524e-09, cumulative = -4.6109e-05
DILUPBiCGStab:  Solving for k, Initial residual = 0.04036, Final residual = 1.1628e-08, No Iterations 2
ExecutionTime = 55.1 s  ClockTime = 56 s

Courant Number mean: 0.0093968 max: 0.54022
deltaT = 0.0072115
Time = 0.213462

diagonal:  Solving for rho, Initial residual = 0, Final residual = 0, No Iterations 0
PIMPLE: iteration 1
DILUPBiCGStab:  Solving for Ux, Initial residual = 0.086294, Final residual = 1.6821e-08, No Iterations 2
DILUPBiCGStab:  Solving for Uy, Initial residual = 0.091406, Final residual = 2.0915e-08, No Iterations 2
DILUPBiCGStab:  Solving for Uz, Initial residual = 0.086311, Final residual = 1.5356e-08, No Iterations 2
DILUPBiCGStab:  Solving for O2, Initial residual = 0.010262, Final residual = 6.1661e-05, No Iterations 1
DILUPBiCGStab:  Solving for H2O, Initial residual = 0.010733, Final residual = 6.4003e-05, No Iterations 1
DILUPBiCGStab:  Solving for CH4, Initial residual = 0.0082131, Final residual = 7.1127e-05, No Iterations 1
DILUPBiCGStab:  Solving for CO2, Initial residual = 0.010733, Final residual = 6.4003e-05, No Iterations 1
      O2	min/ave/max  =	   0.0032386	     0.23216	     0.23301
     H2O	min/ave/max  =	 1.4129e-197	  0.00042449	     0.11462
     CH4	min/ave/max  =	  2.354e-199	  0.00022368	     0.32147
     CO2	min/ave/max  =	 1.7258e-197	   0.0005185	        0.14
      N2	min/ave/max  =	     0.49254	     0.76667	     0.76699
DILUPBiCGStab:  Solving for h, Initial residual = 0.010842, Final residual = 4.7885e-07, No Iterations 1
min/max(T) = 299.97, 1622.8
GAMG:  Solving for p_rgh, Initial residual = 0.067403, Final residual = 0.001121, No Iterations 2
diagonal:  Solving for rho, Initial residual = 0, Final residual = 0, No Iterations 0
time step continuity errors : sum local = 7.2259e-06, global = 3.2381e-06, cumulative = -4.2871e-05
GAMG:  Solving for p_rgh, Initial residual = 0.0062717, Final residual = 8.0435e-07, No Iterations 7
diagonal:  Solving for rho, Initial residual = 0, Final residual = 0, No Iterations 0
time step continuity errors : sum local = 5.4311e-09, global = 3.2159e-09, cumulative = -4.2868e-05
DILUPBiCGStab:  Solving for k, Initial residual = 0.044513, Final residual = 4.852e-08, No Iterations 2
ExecutionTime = 57.11 s  ClockTime = 58 s

Courant Number mean: 0.010282 max: 0.67591
deltaT = 0.0054087
Time = 0.21887

diagonal:  Solving for rho, Initial residual = 0, Final residual = 0, No Iterations 0
PIMPLE: iteration 1
DILUPBiCGStab:  Solving for Ux, Initial residual = 0.056269, Final residual = 3.1808e-07, No Iterations 1
DILUPBiCGStab:  Solving for Uy, Initial residual = 0.05772, Final residual = 4.2465e-07, No Iterations 1
DILUPBiCGStab:  Solving for Uz, Initial residual = 0.056265, Final residual = 3.3526e-07, No Iterations 1
DILUPBiCGStab:  Solving for O2, Initial residual = 0.007683, Final residual = 2.9068e-05, No Iterations 1
DILUPBiCGStab:  Solving for H2O, Initial residual = 0.0079955, Final residual = 2.9747e-05, No Iterations 1
DILUPBiCGStab:  Solving for CH4, Initial residual = 0.0064276, Final residual = 4.0203e-05, No Iterations 1
DILUPBiCGStab:  Solving for CO2, Initial residual = 0.0079955, Final residual = 2.9747e-05, No Iterations 1
      O2	min/ave/max  =	   0.0025566	     0.23214	     0.23301
     H2O	min/ave/max  =	 3.6753e-197	  0.00043428	     0.11551
     CH4	min/ave/max  =	 4.9764e-199	  0.00022592	     0.33194
     CO2	min/ave/max  =	 4.4892e-197	  0.00053046	     0.14109
      N2	min/ave/max  =	     0.48487	     0.76667	     0.76699
DILUPBiCGStab:  Solving for h, Initial residual = 0.0078907, Final residual = 1.5655e-07, No Iterations 1
min/max(T) = 299.97, 1627.4
GAMG:  Solving for p_rgh, Initial residual = 0.050498, Final residual = 0.0047963, No Iterations 1
diagonal:  Solving for rho, Initial residual = 0, Final residual = 0, No Iterations 0
time step continuity errors : sum local = 1.9384e-05, global = 7.1522e-06, cumulative = -3.5716e-05
GAMG:  Solving for p_rgh, Initial residual = 0.0052546, Final residual = 6.0746e-07, No Iterations 8
diagonal:  Solving for rho, Initial residual = 0, Final residual = 0, No Iterations 0
time step continuity errors : sum local = 2.5932e-09, global = 1.4426e-09, cumulative = -3.5714e-05
DILUPBiCGStab:  Solving for k, Initial residual = 0.030524, Final residual = 9.304e-07, No Iterations 1
ExecutionTime = 59.12 s  ClockTime = 60 s

Courant Number mean: 0.0077464 max: 0.51106
deltaT = 0.0067608
Time = 0.225631

diagonal:  Solving for rho, Initial residual = 0, Final residual = 0, No Iterations 0
PIMPLE: iteration 1
DILUPBiCGStab:  Solving for Ux, Initial residual = 0.042553, Final residual = 1.4624e-08, No Iterations 2
DILUPBiCGStab:  Solving for Uy, Initial residual = 0.056999, Final residual = 2.1845e-08, No Iterations 2
DILUPBiCGStab:  Solving for Uz, Initial residual = 0.042567, Final residual = 1.328e-08, No Iterations 2
DILUPBiCGStab:  Solving for O2, Initial residual = 0.0097779, Final residual = 6.0917e-05, No Iterations 1
DILUPBiCGStab:  Solving for H2O, Initial residual = 0.010247, Final residual = 6.3201e-05, No Iterations 1
DILUPBiCGStab:  Solving for CH4, Initial residual = 0.0081723, Final residual = 7.6513e-05, No Iterations 1
DILUPBiCGStab:  Solving for CO2, Initial residual = 0.010247, Final residual = 6.3201e-05, No Iterations 1
      O2	min/ave/max  =	   0.0020119	     0.23212	     0.23301
     H2O	min/ave/max  =	 1.3244e-196	  0.00044454	     0.11596
     CH4	min/ave/max  =	  1.473e-198	  0.00023173	     0.34461
     CO2	min/ave/max  =	 1.6177e-196	  0.00054299	     0.14164
      N2	min/ave/max  =	     0.47538	     0.76666	     0.76699
DILUPBiCGStab:  Solving for h, Initial residual = 0.010139, Final residual = 4.887e-07, No Iterations 1
min/max(T) = 299.96, 1611.7
GAMG:  Solving for p_rgh, Initial residual = 0.051945, Final residual = 0.00097536, No Iterations 2
diagonal:  Solving for rho, Initial residual = 0, Final residual = 0, No Iterations 0
time step continuity errors : sum local = 7.3247e-06, global = 4.0684e-06, cumulative = -3.1646e-05
GAMG:  Solving for p_rgh, Initial residual = 0.0047079, Final residual = 6.7286e-07, No Iterations 7
diagonal:  Solving for rho, Initial residual = 0, Final residual = 0, No Iterations 0
time step continuity errors : sum local = 5.2416e-09, global = 2.972e-09, cumulative = -3.1643e-05
DILUPBiCGStab:  Solving for k, Initial residual = 0.036352, Final residual = 4.551e-08, No Iterations 2
ExecutionTime = 61.14 s  ClockTime = 62 s

Courant Number mean: 0.0099215 max: 0.69447
deltaT = 0.0046481
Time = 0.230279

diagonal:  Solving for rho, Initial residual = 0, Final residual = 0, No Iterations 0
PIMPLE: iteration 1
DILUPBiCGStab:  Solving for Ux, Initial residual = 0.018603, Final residual = 1.7673e-07, No Iterations 1
DILUPBiCGStab:  Solving for Uy, Initial residual = 0.025767, Final residual = 2.0621e-07, No Iterations 1
DILUPBiCGStab:  Solving for Uz, Initial residual = 0.018597, Final residual = 1.7286e-07, No Iterations 1
DILUPBiCGStab:  Solving for O2, Initial residual = 0.0066919, Final residual = 2.2239e-05, No Iterations 1
DILUPBiCGStab:  Solving for H2O, Initial residual = 0.0070381, Final residual = 2.2823e-05, No Iterations 1
DILUPBiCGStab:  Solving for CH4, Initial residual = 0.0058445, Final residual = 3.3684e-05, No Iterations 1
DILUPBiCGStab:  Solving for CO2, Initial residual = 0.0070381, Final residual = 2.2823e-05, No Iterations 1
      O2	min/ave/max  =	   0.0015788	      0.2321	     0.23301
     H2O	min/ave/max  =	 2.8779e-196	  0.00045432	     0.11638
     CH4	min/ave/max  =	 2.5906e-198	  0.00023345	     0.35467
     CO2	min/ave/max  =	 3.5152e-196	  0.00055493	     0.14215
      N2	min/ave/max  =	     0.46803	     0.76666	     0.76699
DILUPBiCGStab:  Solving for h, Initial residual = 0.0070409, Final residual = 1.002e-07, No Iterations 1
min/max(T) = 299.96, 1615.3
GAMG:  Solving for p_rgh, Initial residual = 0.036971, Final residual = 0.0035409, No Iterations 1
diagonal:  Solving for rho, Initial residual = 0, Final residual = 0, No Iterations 0
time step continuity errors : sum local = 1.3823e-05, global = 6.8135e-06, cumulative = -2.4829e-05
GAMG:  Solving for p_rgh, Initial residual = 0.0037284, Final residual = 5.2578e-07, No Iterations 8
diagonal:  Solving for rho, Initial residual = 0, Final residual = 0, No Iterations 0
time step continuity errors : sum local = 2.168e-09, global = 1.1933e-09, cumulative = -2.4828e-05
DILUPBiCGStab:  Solving for k, Initial residual = 0.02283, Final residual = 5.26e-07, No Iterations 1
ExecutionTime = 63.12 s  ClockTime = 64 s

Courant Number mean: 0.0072593 max: 0.50049
deltaT = 0.0058101
Time = 0.236089

diagonal:  Solving for rho, Initial residual = 0, Final residual = 0, No Iterations 0
PIMPLE: iteration 1
DILUPBiCGStab:  Solving for Ux, Initial residual = 0.043202, Final residual = 5.3118e-07, No Iterations 1
DILUPBiCGStab:  Solving for Uy, Initial residual = 0.045925, Final residual = 7.7109e-07, No Iterations 1
DILUPBiCGStab:  Solving for Uz, Initial residual = 0.043265, Final residual = 5.3336e-07, No Iterations 1
DILUPBiCGStab:  Solving for O2, Initial residual = 0.0087928, Final residual = 4.8129e-05, No Iterations 1
DILUPBiCGStab:  Solving for H2O, Initial residual = 0.0092446, Final residual = 4.9883e-05, No Iterations 1
DILUPBiCGStab:  Solving for CH4, Initial residual = 0.0070042, Final residual = 5.8778e-05, No Iterations 1
DILUPBiCGStab:  Solving for CO2, Initial residual = 0.0092446, Final residual = 4.9883e-05, No Iterations 1
      O2	min/ave/max  =	   0.0012385	     0.23208	     0.23301
     H2O	min/ave/max  =	 8.0598e-196	  0.00046486	     0.11638
     CH4	min/ave/max  =	 5.9206e-198	  0.00023905	     0.36713
     CO2	min/ave/max  =	 9.8447e-196	  0.00056781	     0.14215
      N2	min/ave/max  =	     0.45897	     0.76665	     0.76699
Radiation solver iter: 0
GAMG:  Solving for ILambda_0_0, Initial residual = 0.21604, Final residual = 0.0026317, No Iterations 1
GAMG:  Solving for ILambda_1_0, Initial residual = 0.23567, Final residual = 1.0464e-05, No Iterations 1
GAMG:  Solving for ILambda_2_0, Initial residual = 0.35, Final residual = 0.084692, No Iterations 1
GAMG:  Solving for ILambda_3_0, Initial residual = 0.36084, Final residual = 0.025158, No Iterations 1
GAMG:  Solving for ILambda_4_0, Initial residual = 0.35724, Final residual = 0.018175, No Iterations 1
GAMG:  Solving for ILambda_5_0, Initial residual = 0.34102, Final residual = 0.06226, No Iterations 1
GAMG:  Solving for ILambda_6_0, Initial residual = 0.31877, Final residual = 0.088537, No Iterations 1
GAMG:  Solving for ILambda_7_0, Initial residual = 0.28524, Final residual = 0.059919, No Iterations 1
GAMG:  Solving for ILambda_8_0, Initial residual = 0.32565, Final residual = 0.094743, No Iterations 1
GAMG:  Solving for ILambda_9_0, Initial residual = 0.33433, Final residual = 0.097379, No Iterations 1
GAMG:  Solving for ILambda_10_0, Initial residual = 0.33938, Final residual = 0.061603, No Iterations 1
GAMG:  Solving for ILambda_11_0, Initial residual = 0.35526, Final residual = 0.010732, No Iterations 1
GAMG:  Solving for ILambda_12_0, Initial residual = 0.35215, Final residual = 3.4115e-10, No Iterations 1
GAMG:  Solving for ILambda_13_0, Initial residual = 0.32502, Final residual = 1.6614e-10, No Iterations 1
GAMG:  Solving for ILambda_14_0, Initial residual = 0.32434, Final residual = 0.097382, No Iterations 1
GAMG:  Solving for ILambda_15_0, Initial residual = 0.29729, Final residual = 0.082655, No Iterations 1
DILUPBiCGStab:  Solving for h, Initial residual = 0.0091312, Final residual = 3.4074e-07, No Iterations 1
min/max(T) = 299.96, 1598.3
GAMG:  Solving for p_rgh, Initial residual = 0.037, Final residual = 0.00064531, No Iterations 2
diagonal:  Solving for rho, Initial residual = 0, Final residual = 0, No Iterations 0
time step continuity errors : sum local = 4.6733e-06, global = -2.4836e-06, cumulative = -2.7312e-05
GAMG:  Solving for p_rgh, Initial residual = 0.0031908, Final residual = 4.6645e-07, No Iterations 7
diagonal:  Solving for rho, Initial residual = 0, Final residual = 0, No Iterations 0
time step continuity errors : sum local = 3.3226e-09, global = -1.832e-09, cumulative = -2.7314e-05
DILUPBiCGStab:  Solving for k, Initial residual = 0.027023, Final residual = 1.9302e-08, No Iterations 2
ExecutionTime = 66.34 s  ClockTime = 67 s

Courant Number mean: 0.0095315 max: 0.65871
deltaT = 0.0042607
Time = 0.24035

diagonal:  Solving for rho, Initial residual = 0, Final residual = 0, No Iterations 0
PIMPLE: iteration 1
DILUPBiCGStab:  Solving for Ux, Initial residual = 0.02126, Final residual = 1.3232e-07, No Iterations 1
DILUPBiCGStab:  Solving for Uy, Initial residual = 0.023556, Final residual = 1.3749e-07, No Iterations 1
DILUPBiCGStab:  Solving for Uz, Initial residual = 0.02127, Final residual = 1.3256e-07, No Iterations 1
DILUPBiCGStab:  Solving for O2, Initial residual = 0.0064273, Final residual = 1.9834e-05, No Iterations 1
DILUPBiCGStab:  Solving for H2O, Initial residual = 0.0068175, Final residual = 2.062e-05, No Iterations 1
DILUPBiCGStab:  Solving for CH4, Initial residual = 0.0052425, Final residual = 2.8471e-05, No Iterations 1
DILUPBiCGStab:  Solving for CO2, Initial residual = 0.0068175, Final residual = 2.062e-05, No Iterations 1
      O2	min/ave/max  =	  0.00097927	     0.23206	     0.23301
     H2O	min/ave/max  =	 1.6038e-195	  0.00047502	     0.11635
     CH4	min/ave/max  =	 9.5229e-198	  0.00024074	     0.37634
     CO2	min/ave/max  =	  1.959e-195	  0.00058022	     0.14211
      N2	min/ave/max  =	     0.45225	     0.76664	     0.76699
DILUPBiCGStab:  Solving for h, Initial residual = 0.0069108, Final residual = 8.3917e-08, No Iterations 1
min/max(T) = 299.96, 1600.9
GAMG:  Solving for p_rgh, Initial residual = 0.0318, Final residual = 0.0029019, No Iterations 1
diagonal:  Solving for rho, Initial residual = 0, Final residual = 0, No Iterations 0
time step continuity errors : sum local = 1.1012e-05, global = 4.2997e-06, cumulative = -2.3014e-05
GAMG:  Solving for p_rgh, Initial residual = 0.0030228, Final residual = 4.1008e-07, No Iterations 8
diagonal:  Solving for rho, Initial residual = 0, Final residual = 0, No Iterations 0
time step continuity errors : sum local = 1.6182e-09, global = 9.0677e-10, cumulative = -2.3013e-05
DILUPBiCGStab:  Solving for k, Initial residual = 0.018439, Final residual = 3.6596e-07, No Iterations 1
ExecutionTime = 68.32 s  ClockTime = 69 s

Courant Number mean: 0.0074663 max: 0.49799
deltaT = 0.0054227
Time = 0.245773

diagonal:  Solving for rho, Initial residual = 0, Final residual = 0, No Iterations 0
PIMPLE: iteration 1
DILUPBiCGStab:  Solving for Ux, Initial residual = 0.047114, Final residual = 4.4194e-07, No Iterations 1
DILUPBiCGStab:  Solving for Uy, Initial residual = 0.043993, Final residual = 6.4472e-07, No Iterations 1
DILUPBiCGStab:  Solving for Uz, Initial residual = 0.04715, Final residual = 4.5649e-07, No Iterations 1
DILUPBiCGStab:  Solving for O2, Initial residual = 0.008673, Final residual = 4.5617e-05, No Iterations 1
DILUPBiCGStab:  Solving for H2O, Initial residual = 0.0091497, Final residual = 4.7557e-05, No Iterations 1
DILUPBiCGStab:  Solving for CH4, Initial residual = 0.006541, Final residual = 5.4362e-05, No Iterations 1
DILUPBiCGStab:  Solving for CO2, Initial residual = 0.0091497, Final residual = 4.7557e-05, No Iterations 1
      O2	min/ave/max  =	  0.00077711	     0.23204	     0.23301
     H2O	min/ave/max  =	 4.0668e-195	   0.0004858	     0.11688
     CH4	min/ave/max  =	 1.9674e-197	  0.00024648	     0.38793
     CO2	min/ave/max  =	 4.9675e-195	  0.00059338	     0.14277
      N2	min/ave/max  =	     0.44384	     0.76664	     0.76699
DILUPBiCGStab:  Solving for h, Initial residual = 0.0089679, Final residual = 3.3028e-07, No Iterations 1
min/max(T) = 299.96, 1603.5
GAMG:  Solving for p_rgh, Initial residual = 0.034994, Final residual = 0.00082009, No Iterations 2
diagonal:  Solving for rho, Initial residual = 0, Final residual = 0, No Iterations 0
time step continuity errors : sum local = 5.6707e-06, global = -4.0308e-06, cumulative = -2.7044e-05
GAMG:  Solving for p_rgh, Initial residual = 0.0032764, Final residual = 6.3656e-07, No Iterations 7
diagonal:  Solving for rho, Initial residual = 0, Final residual = 0, No Iterations 0
time step continuity errors : sum local = 4.1479e-09, global = -2.2475e-09, cumulative = -2.7046e-05
DILUPBiCGStab:  Solving for k, Initial residual = 0.022231, Final residual = 1.4715e-08, No Iterations 2
ExecutionTime = 70.31 s  ClockTime = 71 s

Courant Number mean: 0.0098797 max: 0.65493
deltaT = 0.0041713
Time = 0.249944

diagonal:  Solving for rho, Initial residual = 0, Final residual = 0, No Iterations 0
PIMPLE: iteration 1
DILUPBiCGStab:  Solving for Ux, Initial residual = 0.019063, Final residual = 1.4289e-07, No Iterations 1
DILUPBiCGStab:  Solving for Uy, Initial residual = 0.021824, Final residual = 1.4628e-07, No Iterations 1
DILUPBiCGStab:  Solving for Uz, Initial residual = 0.019078, Final residual = 1.4008e-07, No Iterations 1
DILUPBiCGStab:  Solving for O2, Initial residual = 0.0066176, Final residual = 2.1779e-05, No Iterations 1
DILUPBiCGStab:  Solving for H2O, Initial residual = 0.0069919, Final residual = 2.2493e-05, No Iterations 1
DILUPBiCGStab:  Solving for CH4, Initial residual = 0.0050464, Final residual = 2.8862e-05, No Iterations 1
DILUPBiCGStab:  Solving for CO2, Initial residual = 0.0069919, Final residual = 2.2493e-05, No Iterations 1
      O2	min/ave/max  =	  0.00062033	     0.23202	     0.23301
     H2O	min/ave/max  =	 7.8985e-195	  0.00049586	     0.11747
     CH4	min/ave/max  =	 3.0897e-197	  0.00024853	     0.39633
     CO2	min/ave/max  =	 9.6477e-195	  0.00060568	     0.14348
      N2	min/ave/max  =	     0.43773	     0.76663	     0.76699
DILUPBiCGStab:  Solving for h, Initial residual = 0.0069801, Final residual = 1.0016e-07, No Iterations 1
min/max(T) = 299.96, 1619.4
GAMG:  Solving for p_rgh, Initial residual = 0.03237, Final residual = 0.0028464, No Iterations 1
diagonal:  Solving for rho, Initial residual = 0, Final residual = 0, No Iterations 0
[...]
DILUPBiCGStab:  Solving for k, Initial residual = 0.0057354, Final residual = 1.7741e-07, No Iterations 1
ExecutionTime = 369.68 s  ClockTime = 371 s

Courant Number mean: 0.02394 max: 0.54738
deltaT = 0.0018612
Time = 0.608801

diagonal:  Solving for rho, Initial residual = 0, Final residual = 0, No Iterations 0
PIMPLE: iteration 1
DILUPBiCGStab:  Solving for Ux, Initial residual = 0.0090818, Final residual = 4.1122e-07, No Iterations 1
DILUPBiCGStab:  Solving for Uy, Initial residual = 0.0068766, Final residual = 4.8519e-07, No Iterations 1
DILUPBiCGStab:  Solving for Uz, Initial residual = 0.0091066, Final residual = 3.9674e-07, No Iterations 1
DILUPBiCGStab:  Solving for O2, Initial residual = 0.0047941, Final residual = 1.8587e-05, No Iterations 1
DILUPBiCGStab:  Solving for H2O, Initial residual = 0.0048604, Final residual = 1.8732e-05, No Iterations 1
DILUPBiCGStab:  Solving for CH4, Initial residual = 0.0010804, Final residual = 1.1441e-05, No Iterations 1
DILUPBiCGStab:  Solving for CO2, Initial residual = 0.0048604, Final residual = 1.8732e-05, No Iterations 1
      O2	min/ave/max  =	  2.8831e-06	     0.22926	     0.23301
     H2O	min/ave/max  =	 1.8044e-149	   0.0019594	     0.11823
     CH4	min/ave/max  =	 3.5537e-161	  0.00027237	     0.65819
     CO2	min/ave/max  =	  2.204e-149	   0.0023933	     0.14441
      N2	min/ave/max  =	     0.24766	     0.76611	     0.76699
DILUPBiCGStab:  Solving for h, Initial residual = 0.0049581, Final residual = 2.5648e-07, No Iterations 1
min/max(T) = 299.9, 1789
GAMG:  Solving for p_rgh, Initial residual = 0.025893, Final residual = 0.00070793, No Iterations 2
diagonal:  Solving for rho, Initial residual = 0, Final residual = 0, No Iterations 0
time step continuity errors : sum local = 1.7544e-06, global = 9.2827e-08, cumulative = -2.8242e-05
GAMG:  Solving for p_rgh, Initial residual = 0.0020715, Final residual = 4.4391e-07, No Iterations 6
diagonal:  Solving for rho, Initial residual = 0, Final residual = 0, No Iterations 0
time step continuity errors : sum local = 1.1003e-09, global = 1.4694e-10, cumulative = -2.8242e-05
DILUPBiCGStab:  Solving for k, Initial residual = 0.0067957, Final residual = 3.6944e-07, No Iterations 1
ExecutionTime = 371.68 s  ClockTime = 373 s

Courant Number mean: 0.028488 max: 0.65277
deltaT = 0.0015458
Time = 0.610346

diagonal:  Solving for rho, Initial residual = 0, Final residual = 0, No Iterations 0
PIMPLE: iteration 1
DILUPBiCGStab:  Solving for Ux, Initial residual = 0.0070801, Final residual = 1.8682e-07, No Iterations 1
DILUPBiCGStab:  Solving for Uy, Initial residual = 0.0053985, Final residual = 2.4764e-07, No Iterations 1
DILUPBiCGStab:  Solving for Uz, Initial residual = 0.0070978, Final residual = 1.7882e-07, No Iterations 1
DILUPBiCGStab:  Solving for O2, Initial residual = 0.0039816, Final residual = 1.2028e-05, No Iterations 1
DILUPBiCGStab:  Solving for H2O, Initial residual = 0.0040379, Final residual = 1.2117e-05, No Iterations 1
DILUPBiCGStab:  Solving for CH4, Initial residual = 0.00093529, Final residual = 7.1462e-06, No Iterations 1
DILUPBiCGStab:  Solving for CO2, Initial residual = 0.0040379, Final residual = 1.2117e-05, No Iterations 1
      O2	min/ave/max  =	  2.7819e-06	     0.22926	     0.23301
     H2O	min/ave/max  =	  4.039e-149	   0.0019629	     0.11829
     CH4	min/ave/max  =	 7.3173e-161	  0.00027152	     0.65837
     CO2	min/ave/max  =	 4.9335e-149	   0.0023976	     0.14448
      N2	min/ave/max  =	     0.24754	     0.76611	     0.76699
DILUPBiCGStab:  Solving for h, Initial residual = 0.0041169, Final residual = 1.6239e-07, No Iterations 1
min/max(T) = 299.9, 1793.5
GAMG:  Solving for p_rgh, Initial residual = 0.021442, Final residual = 0.00058758, No Iterations 2
diagonal:  Solving for rho, Initial residual = 0, Final residual = 0, No Iterations 0
time step continuity errors : sum local = 1.0099e-06, global = -2.286e-07, cumulative = -2.8471e-05
GAMG:  Solving for p_rgh, Initial residual = 0.001386, Final residual = 8.8584e-07, No Iterations 5
diagonal:  Solving for rho, Initial residual = 0, Final residual = 0, No Iterations 0
time step continuity errors : sum local = 1.5058e-09, global = -4.7203e-10, cumulative = -2.8471e-05
DILUPBiCGStab:  Solving for k, Initial residual = 0.0057053, Final residual = 2.1267e-07, No Iterations 1
ExecutionTime = 373.65 s  ClockTime = 375 s

Courant Number mean: 0.02378 max: 0.54469
deltaT = 0.0018297
Time = 0.612176

diagonal:  Solving for rho, Initial residual = 0, Final residual = 0, No Iterations 0
PIMPLE: iteration 1
DILUPBiCGStab:  Solving for Ux, Initial residual = 0.008019, Final residual = 3.1686e-07, No Iterations 1
DILUPBiCGStab:  Solving for Uy, Initial residual = 0.0063219, Final residual = 3.1895e-07, No Iterations 1
DILUPBiCGStab:  Solving for Uz, Initial residual = 0.0080582, Final residual = 3.0792e-07, No Iterations 1
DILUPBiCGStab:  Solving for O2, Initial residual = 0.0047228, Final residual = 1.9654e-05, No Iterations 1
DILUPBiCGStab:  Solving for H2O, Initial residual = 0.0047879, Final residual = 1.9809e-05, No Iterations 1
DILUPBiCGStab:  Solving for CH4, Initial residual = 0.0010674, Final residual = 1.1128e-05, No Iterations 1
DILUPBiCGStab:  Solving for CO2, Initial residual = 0.0047879, Final residual = 1.9809e-05, No Iterations 1
      O2	min/ave/max  =	  2.8066e-06	     0.22925	     0.23301
     H2O	min/ave/max  =	 1.1068e-148	    0.001966	     0.11828
     CH4	min/ave/max  =	 1.9399e-160	  0.00027189	     0.65855
     CO2	min/ave/max  =	 1.3519e-148	   0.0024014	     0.14447
      N2	min/ave/max  =	      0.2474	     0.76611	     0.76699
DILUPBiCGStab:  Solving for h, Initial residual = 0.0048781, Final residual = 3.4939e-07, No Iterations 1
min/max(T) = 299.9, 1789.5
GAMG:  Solving for p_rgh, Initial residual = 0.02524, Final residual = 0.0023016, No Iterations 1
diagonal:  Solving for rho, Initial residual = 0, Final residual = 0, No Iterations 0
time step continuity errors : sum local = 5.4125e-06, global = -1.2415e-06, cumulative = -2.9713e-05
GAMG:  Solving for p_rgh, Initial residual = 0.0029251, Final residual = 5.2633e-07, No Iterations 7
diagonal:  Solving for rho, Initial residual = 0, Final residual = 0, No Iterations 0
time step continuity errors : sum local = 1.214e-09, global = -5.6465e-10, cumulative = -2.9713e-05
DILUPBiCGStab:  Solving for k, Initial residual = 0.0067978, Final residual = 4.3119e-07, No Iterations 1
ExecutionTime = 375.62 s  ClockTime = 377 s

Courant Number mean: 0.028334 max: 0.64295
deltaT = 0.0015683
Time = 0.613744

diagonal:  Solving for rho, Initial residual = 0, Final residual = 0, No Iterations 0
PIMPLE: iteration 1
DILUPBiCGStab:  Solving for Ux, Initial residual = 0.0067302, Final residual = 1.8792e-07, No Iterations 1
DILUPBiCGStab:  Solving for Uy, Initial residual = 0.0050364, Final residual = 1.9125e-07, No Iterations 1
DILUPBiCGStab:  Solving for Uz, Initial residual = 0.0067546, Final residual = 1.7902e-07, No Iterations 1
DILUPBiCGStab:  Solving for O2, Initial residual = 0.0040559, Final residual = 1.4049e-05, No Iterations 1
DILUPBiCGStab:  Solving for H2O, Initial residual = 0.0041125, Final residual = 1.4165e-05, No Iterations 1
DILUPBiCGStab:  Solving for CH4, Initial residual = 0.00090966, Final residual = 7.761e-06, No Iterations 1
DILUPBiCGStab:  Solving for CO2, Initial residual = 0.0041125, Final residual = 1.4165e-05, No Iterations 1
      O2	min/ave/max  =	  2.7293e-06	     0.22924	     0.23301
     H2O	min/ave/max  =	 2.5341e-148	   0.0019696	     0.11835
     CH4	min/ave/max  =	 4.1422e-160	  0.00027116	     0.65872
     CO2	min/ave/max  =	 3.0953e-148	   0.0024058	     0.14456
      N2	min/ave/max  =	     0.24728	     0.76611	     0.76699
DILUPBiCGStab:  Solving for h, Initial residual = 0.0041955, Final residual = 2.5265e-07, No Iterations 1
min/max(T) = 299.9, 1792.8
GAMG:  Solving for p_rgh, Initial residual = 0.023183, Final residual = 0.00061872, No Iterations 2
diagonal:  Solving for rho, Initial residual = 0, Final residual = 0, No Iterations 0
time step continuity errors : sum local = 1.0138e-06, global = -1.4633e-07, cumulative = -2.9859e-05
GAMG:  Solving for p_rgh, Initial residual = 0.0014478, Final residual = 2.8072e-07, No Iterations 6
diagonal:  Solving for rho, Initial residual = 0, Final residual = 0, No Iterations 0
time step continuity errors : sum local = 4.5594e-10, global = -1.4076e-10, cumulative = -2.986e-05
DILUPBiCGStab:  Solving for k, Initial residual = 0.0058451, Final residual = 2.9447e-07, No Iterations 1
ExecutionTime = 377.6 s  ClockTime = 379 s

Courant Number mean: 0.024409 max: 0.54947
deltaT = 0.0018352
Time = 0.615579

diagonal:  Solving for rho, Initial residual = 0, Final residual = 0, No Iterations 0
PIMPLE: iteration 1
DILUPBiCGStab:  Solving for Ux, Initial residual = 0.0083483, Final residual = 4.4085e-07, No Iterations 1
DILUPBiCGStab:  Solving for Uy, Initial residual = 0.0062861, Final residual = 3.5764e-07, No Iterations 1
DILUPBiCGStab:  Solving for Uz, Initial residual = 0.0083619, Final residual = 4.228e-07, No Iterations 1
DILUPBiCGStab:  Solving for O2, Initial residual = 0.0047588, Final residual = 2.2556e-05, No Iterations 1
DILUPBiCGStab:  Solving for H2O, Initial residual = 0.0048238, Final residual = 2.2746e-05, No Iterations 1
DILUPBiCGStab:  Solving for CH4, Initial residual = 0.0010693, Final residual = 1.1983e-05, No Iterations 1
DILUPBiCGStab:  Solving for CO2, Initial residual = 0.0048238, Final residual = 2.2746e-05, No Iterations 1
      O2	min/ave/max  =	  2.7684e-06	     0.22924	     0.23301
     H2O	min/ave/max  =	  7.015e-148	   0.0019729	     0.11833
     CH4	min/ave/max  =	 1.1229e-159	  0.00027148	      0.6589
     CO2	min/ave/max  =	 8.5685e-148	   0.0024099	     0.14453
      N2	min/ave/max  =	     0.24715	     0.76611	     0.76699
Radiation solver iter: 0
GAMG:  Solving for ILambda_0_0, Initial residual = 0.099836, Final residual = 0.0010757, No Iterations 1
GAMG:  Solving for ILambda_1_0, Initial residual = 0.11008, Final residual = 0.00099866, No Iterations 1
GAMG:  Solving for ILambda_2_0, Initial residual = 0.14365, Final residual = 0.03488, No Iterations 1
GAMG:  Solving for ILambda_3_0, Initial residual = 0.14653, Final residual = 0.019826, No Iterations 1
GAMG:  Solving for ILambda_4_0, Initial residual = 0.14879, Final residual = 0.021047, No Iterations 1
GAMG:  Solving for ILambda_5_0, Initial residual = 0.14307, Final residual = 0.034195, No Iterations 1
GAMG:  Solving for ILambda_6_0, Initial residual = 0.13048, Final residual = 0.027758, No Iterations 1
GAMG:  Solving for ILambda_7_0, Initial residual = 0.10747, Final residual = 0.012152, No Iterations 1
GAMG:  Solving for ILambda_8_0, Initial residual = 0.11307, Final residual = 0.021412, No Iterations 1
GAMG:  Solving for ILambda_9_0, Initial residual = 0.13351, Final residual = 0.032578, No Iterations 1
GAMG:  Solving for ILambda_10_0, Initial residual = 0.13795, Final residual = 0.028995, No Iterations 1
GAMG:  Solving for ILambda_11_0, Initial residual = 0.14359, Final residual = 0.011131, No Iterations 1
GAMG:  Solving for ILambda_12_0, Initial residual = 0.13876, Final residual = 1.1263e-08, No Iterations 1
GAMG:  Solving for ILambda_13_0, Initial residual = 0.12172, Final residual = 1.7704e-08, No Iterations 1
GAMG:  Solving for ILambda_14_0, Initial residual = 0.13392, Final residual = 0.029473, No Iterations 1
GAMG:  Solving for ILambda_15_0, Initial residual = 0.10915, Final residual = 0.016936, No Iterations 1
DILUPBiCGStab:  Solving for h, Initial residual = 0.0049226, Final residual = 5.3402e-07, No Iterations 1
min/max(T) = 299.9, 1788.2
GAMG:  Solving for p_rgh, Initial residual = 0.027505, Final residual = 0.0026456, No Iterations 1
diagonal:  Solving for rho, Initial residual = 0, Final residual = 0, No Iterations 0
time step continuity errors : sum local = 5.8564e-06, global = 7.6016e-07, cumulative = -2.9099e-05
GAMG:  Solving for p_rgh, Initial residual = 0.0032256, Final residual = 3.4139e-07, No Iterations 7
diagonal:  Solving for rho, Initial residual = 0, Final residual = 0, No Iterations 0
time step continuity errors : sum local = 7.5977e-10, global = 2.5431e-10, cumulative = -2.9099e-05
DILUPBiCGStab:  Solving for k, Initial residual = 0.0068604, Final residual = 6.0028e-07, No Iterations 1
ExecutionTime = 380.72 s  ClockTime = 382 s

Courant Number mean: 0.028787 max: 0.64963
deltaT = 0.0015349
Time = 0.617114

diagonal:  Solving for rho, Initial residual = 0, Final residual = 0, No Iterations 0
PIMPLE: iteration 1
DILUPBiCGStab:  Solving for Ux, Initial residual = 0.0072446, Final residual = 2.9586e-07, No Iterations 1
DILUPBiCGStab:  Solving for Uy, Initial residual = 0.005253, Final residual = 2.6144e-07, No Iterations 1
DILUPBiCGStab:  Solving for Uz, Initial residual = 0.0072524, Final residual = 2.8381e-07, No Iterations 1
DILUPBiCGStab:  Solving for O2, Initial residual = 0.0039922, Final residual = 1.5633e-05, No Iterations 1
DILUPBiCGStab:  Solving for H2O, Initial residual = 0.0040491, Final residual = 1.5784e-05, No Iterations 1
DILUPBiCGStab:  Solving for CH4, Initial residual = 0.00086913, Final residual = 7.0363e-06, No Iterations 1
DILUPBiCGStab:  Solving for CO2, Initial residual = 0.0040491, Final residual = 1.5784e-05, No Iterations 1
      O2	min/ave/max  =	  2.6876e-06	     0.22923	     0.23301
     H2O	min/ave/max  =	 1.5762e-147	   0.0019769	     0.11842
     CH4	min/ave/max  =	 2.3585e-159	  0.00027062	     0.65906
     CO2	min/ave/max  =	 1.9253e-147	   0.0024147	     0.14464
      N2	min/ave/max  =	     0.24703	     0.76611	     0.76699
DILUPBiCGStab:  Solving for h, Initial residual = 0.0041381, Final residual = 3.7097e-07, No Iterations 1
min/max(T) = 299.9, 1792.4
GAMG:  Solving for p_rgh, Initial residual = 0.02382, Final residual = 0.00059626, No Iterations 2
diagonal:  Solving for rho, Initial residual = 0, Final residual = 0, No Iterations 0
time step continuity errors : sum local = 9.4734e-07, global = 3.9763e-07, cumulative = -2.8702e-05
GAMG:  Solving for p_rgh, Initial residual = 0.0013979, Final residual = 7.8004e-07, No Iterations 6
diagonal:  Solving for rho, Initial residual = 0, Final residual = 0, No Iterations 0
time step continuity errors : sum local = 1.3038e-09, global = 4.7776e-10, cumulative = -2.8701e-05
DILUPBiCGStab:  Solving for k, Initial residual = 0.0057583, Final residual = 4.0401e-07, No Iterations 1
ExecutionTime = 382.69 s  ClockTime = 384 s

Courant Number mean: 0.024226 max: 0.54447
deltaT = 0.0018019
Time = 0.618916

diagonal:  Solving for rho, Initial residual = 0, Final residual = 0, No Iterations 0
PIMPLE: iteration 1
DILUPBiCGStab:  Solving for Ux, Initial residual = 0.0088564, Final residual = 7.0553e-07, No Iterations 1
DILUPBiCGStab:  Solving for Uy, Initial residual = 0.0066342, Final residual = 5.1613e-07, No Iterations 1
DILUPBiCGStab:  Solving for Uz, Initial residual = 0.0088662, Final residual = 6.878e-07, No Iterations 1
DILUPBiCGStab:  Solving for O2, Initial residual = 0.0046835, Final residual = 2.5522e-05, No Iterations 1
DILUPBiCGStab:  Solving for H2O, Initial residual = 0.0047476, Final residual = 2.575e-05, No Iterations 1
DILUPBiCGStab:  Solving for CH4, Initial residual = 0.0010129, Final residual = 1.1656e-05, No Iterations 1
DILUPBiCGStab:  Solving for CO2, Initial residual = 0.0047476, Final residual = 2.575e-05, No Iterations 1
      O2	min/ave/max  =	  2.7207e-06	     0.22922	     0.23301
     H2O	min/ave/max  =	  4.266e-147	   0.0019804	     0.11837
     CH4	min/ave/max  =	 6.2762e-159	  0.00027091	     0.65923
     CO2	min/ave/max  =	 5.2108e-147	    0.002419	     0.14459
      N2	min/ave/max  =	     0.24691	     0.76611	     0.76699
DILUPBiCGStab:  Solving for h, Initial residual = 0.0048415, Final residual = 7.8661e-07, No Iterations 1
min/max(T) = 299.9, 1788.9
GAMG:  Solving for p_rgh, Initial residual = 0.025409, Final residual = 0.00067814, No Iterations 2
diagonal:  Solving for rho, Initial residual = 0, Final residual = 0, No Iterations 0
time step continuity errors : sum local = 1.5737e-06, global = 2.0968e-08, cumulative = -2.868e-05
GAMG:  Solving for p_rgh, Initial residual = 0.0019991, Final residual = 4.2773e-07, No Iterations 6
diagonal:  Solving for rho, Initial residual = 0, Final residual = 0, No Iterations 0
time step continuity errors : sum local = 9.8944e-10, global = 9.6749e-11, cumulative = -2.868e-05
DILUPBiCGStab:  Solving for k, Initial residual = 0.0067621, Final residual = 8.4004e-07, No Iterations 1
ExecutionTime = 384.7 s  ClockTime = 386 s

Courant Number mean: 0.028664 max: 0.64492
deltaT = 0.0015299
Time = 0.620446

diagonal:  Solving for rho, Initial residual = 0, Final residual = 0, No Iterations 0
PIMPLE: iteration 1
DILUPBiCGStab:  Solving for Ux, Initial residual = 0.0070654, Final residual = 3.4573e-07, No Iterations 1
DILUPBiCGStab:  Solving for Uy, Initial residual = 0.0053098, Final residual = 1.7241e-07, No Iterations 1
DILUPBiCGStab:  Solving for Uz, Initial residual = 0.0070796, Final residual = 3.3496e-07, No Iterations 1
DILUPBiCGStab:  Solving for O2, Initial residual = 0.0039901, Final residual = 1.924e-05, No Iterations 1
DILUPBiCGStab:  Solving for H2O, Initial residual = 0.0040466, Final residual = 1.9418e-05, No Iterations 1
DILUPBiCGStab:  Solving for CH4, Initial residual = 0.00084882, Final residual = 7.5776e-06, No Iterations 1
DILUPBiCGStab:  Solving for CO2, Initial residual = 0.0040466, Final residual = 1.9418e-05, No Iterations 1
      O2	min/ave/max  =	  2.6437e-06	     0.22922	     0.23301
     H2O	min/ave/max  =	 9.5638e-147	   0.0019842	     0.11847
     CH4	min/ave/max  =	 1.3255e-158	  0.00027018	     0.65939
     CO2	min/ave/max  =	 1.1682e-146	   0.0024236	     0.14471
      N2	min/ave/max  =	      0.2468	     0.76611	     0.76699
DILUPBiCGStab:  Solving for h, Initial residual = 0.004131, Final residual = 5.5869e-07, No Iterations 1
min/max(T) = 299.9, 1792.8
GAMG:  Solving for p_rgh, Initial residual = 0.022455, Final residual = 0.00056405, No Iterations 2
diagonal:  Solving for rho, Initial residual = 0, Final residual = 0, No Iterations 0
time step continuity errors : sum local = 9.438e-07, global = -2.321e-07, cumulative = -2.8912e-05
GAMG:  Solving for p_rgh, Initial residual = 0.0014061, Final residual = 9.1503e-07, No Iterations 5
diagonal:  Solving for rho, Initial residual = 0, Final residual = 0, No Iterations 0
time step continuity errors : sum local = 1.5133e-09, global = -4.6884e-10, cumulative = -2.8913e-05
DILUPBiCGStab:  Solving for k, Initial residual = 0.0057871, Final residual = 6.0039e-07, No Iterations 1
ExecutionTime = 386.66 s  ClockTime = 388 s

Courant Number mean: 0.024462 max: 0.54954
deltaT = 0.001808
Time = 0.622254

diagonal:  Solving for rho, Initial residual = 0, Final residual = 0, No Iterations 0
PIMPLE: iteration 1
DILUPBiCGStab:  Solving for Ux, Initial residual = 0.0080392, Final residual = 5.5904e-07, No Iterations 1
DILUPBiCGStab:  Solving for Uy, Initial residual = 0.0061912, Final residual = 2.4557e-07, No Iterations 1
DILUPBiCGStab:  Solving for Uz, Initial residual = 0.0080445, Final residual = 5.4311e-07, No Iterations 1
DILUPBiCGStab:  Solving for O2, Initial residual = 0.0047113, Final residual = 3.1513e-05, No Iterations 1
DILUPBiCGStab:  Solving for H2O, Initial residual = 0.0047759, Final residual = 3.1791e-05, No Iterations 1
DILUPBiCGStab:  Solving for CH4, Initial residual = 0.0010178, Final residual = 1.2923e-05, No Iterations 1
DILUPBiCGStab:  Solving for CO2, Initial residual = 0.0047759, Final residual = 3.1791e-05, No Iterations 1
      O2	min/ave/max  =	  2.6831e-06	     0.22921	     0.23301
     H2O	min/ave/max  =	 2.6147e-146	   0.0019873	     0.11848
     CH4	min/ave/max  =	 3.6247e-158	  0.00027057	     0.65956
     CO2	min/ave/max  =	 3.1938e-146	   0.0024275	     0.14472
      N2	min/ave/max  =	     0.24667	      0.7661	     0.76699
